/*---------------------------------------------------------------------------*\
  =========                 |
  \\      /  F ield         | OpenFOAM: The Open Source CFD Toolbox
   \\    /   O peration     | Website:  https://openfoam.org
    \\  /    A nd           | Version:  7
     \\/     M anipulation  |
\*---------------------------------------------------------------------------*/
Build  : 7-49b2b3b8b082
Exec   : decomposePar
Date   : Apr 05 2021
Time   : 18:59:46
Host   : "c401-083.stampede2.tacc.utexas.edu"
PID    : 164166
I/O    : uncollated
Case   : /work/07965/clans/stampede2/COE-347-SP21/circular-cylinder
nProcs : 1
sigFpe : Enabling floating point exception trapping (FOAM_SIGFPE).
fileModificationChecking : Monitoring run-time modified files using timeStampMaster (fileModificationSkew 10)
allowSystemOperations : Allowing user-supplied system call operations

// * * * * * * * * * * * * * * * * * * * * * * * * * * * * * * * * * * * * * //
Create time



Decomposing mesh region0

Create mesh

Calculating distribution of cells
 Foam::decompositionMethod::New 
{
    numberOfSubdomains 4;
    method          hierarchical;
    simpleCoeffs
    {
        n               ( 2 2 1 );
        delta           0.001;
    }
    hierarchicalCoeffs
    {
        n               ( 2 2 1 );
        delta           0.001;
        order           xyz;
    }
}

Selecting decompositionMethod hierarchical

Finished decomposition in 0.02 s

Calculating original mesh data

Distributing cells to processors

Distributing faces to processors

Distributing points to processors

Constructing processor meshes

Processor 0
    Number of cells = 3312
    Number of faces shared with processor 1 = 72
    Number of faces shared with processor 2 = 38
    Number of processor patches = 2
    Number of processor faces = 110
    Number of boundary faces = 6794

Processor 1
    Number of cells = 3312
    Number of faces shared with processor 0 = 72
    Number of faces shared with processor 2 = 1
    Number of faces shared with processor 3 = 57
    Number of processor patches = 3
    Number of processor faces = 130
    Number of boundary faces = 6738

Processor 2
    Number of cells = 3313
    Number of faces shared with processor 0 = 38
    Number of faces shared with processor 1 = 1
    Number of faces shared with processor 3 = 71
    Number of processor patches = 3
    Number of processor faces = 110
    Number of boundary faces = 6796

Processor 3
    Number of cells = 3313
    Number of faces shared with processor 1 = 57
    Number of faces shared with processor 2 = 71
    Number of processor patches = 2
    Number of processor faces = 128
    Number of boundary faces = 6742

Number of processor faces = 239
Max number of cells = 3313 (0.0150943% above average 3312.5)
Max number of processor patches = 3 (20% above average 2.5)
Max number of faces between processors = 130 (8.78661% above average 119.5)

Time = 0

Processor 0: field transfer
Processor 1: field transfer
Processor 2: field transfer
Processor 3: field transfer

End

