/*---------------------------------------------------------------------------*\
  =========                 |
  \\      /  F ield         | OpenFOAM: The Open Source CFD Toolbox
   \\    /   O peration     | Website:  https://openfoam.org
    \\  /    A nd           | Version:  7
     \\/     M anipulation  |
\*---------------------------------------------------------------------------*/
Build  : 7-49b2b3b8b082
Exec   : icoFoam -parallel
Date   : Apr 05 2021
Time   : 18:59:52
Host   : "c401-083.stampede2.tacc.utexas.edu"
PID    : 164266
I/O    : uncollated
Case   : /work/07965/clans/stampede2/COE-347-SP21/circular-cylinder
nProcs : 4
Slaves : 
3
(
"c401-083.stampede2.tacc.utexas.edu.164267"
"c401-083.stampede2.tacc.utexas.edu.164268"
"c401-083.stampede2.tacc.utexas.edu.164269"
)

Pstream initialized with:
    floatTransfer      : 0
    nProcsSimpleSum    : 0
    commsType          : nonBlocking
    polling iterations : 0
sigFpe : Enabling floating point exception trapping (FOAM_SIGFPE).
fileModificationChecking : Monitoring run-time modified files using timeStampMaster (fileModificationSkew 10)
allowSystemOperations : Allowing user-supplied system call operations

// * * * * * * * * * * * * * * * * * * * * * * * * * * * * * * * * * * * * * //
Create time

Create mesh for time = 0

Reading transportProperties

Reading field p

Reading field U

Reading/calculating face flux field phi


Starting time loop

Reading set description:
    WakeProfile2d
    WakeProfile4d

Time = 0.01

Courant Number mean: 0.0809208 max: 0.546015
smoothSolver:  Solving for Ux, Initial residual = 1, Final residual = 2.19292e-08, No Iterations 6
smoothSolver:  Solving for Uy, Initial residual = 0, Final residual = 0, No Iterations 0
DICPCG:  Solving for p, Initial residual = 1, Final residual = 7.86038e-08, No Iterations 198
time step continuity errors : sum local = 4.49818e-12, global = 5.21689e-14, cumulative = 5.21689e-14
DICPCG:  Solving for p, Initial residual = 0.0643181, Final residual = 8.23617e-08, No Iterations 178
time step continuity errors : sum local = 4.45107e-11, global = 7.26158e-13, cumulative = 7.78327e-13
ExecutionTime = 0.62 s  ClockTime = 1 s

Time = 0.02

Courant Number mean: 0.0814642 max: 0.650042
smoothSolver:  Solving for Ux, Initial residual = 0.290845, Final residual = 2.32203e-08, No Iterations 5
smoothSolver:  Solving for Uy, Initial residual = 0.332484, Final residual = 1.66346e-08, No Iterations 5
DICPCG:  Solving for p, Initial residual = 0.161065, Final residual = 9.62622e-08, No Iterations 188
time step continuity errors : sum local = 4.93749e-11, global = -2.11179e-13, cumulative = 5.67148e-13
DICPCG:  Solving for p, Initial residual = 0.278076, Final residual = 8.44912e-08, No Iterations 189
time step continuity errors : sum local = 1.07142e-11, global = 6.87584e-15, cumulative = 5.74023e-13
ExecutionTime = 0.73 s  ClockTime = 1 s

Time = 0.03

Courant Number mean: 0.0814665 max: 0.636088
smoothSolver:  Solving for Ux, Initial residual = 0.0167106, Final residual = 2.42139e-08, No Iterations 4
smoothSolver:  Solving for Uy, Initial residual = 0.0374305, Final residual = 1.46854e-08, No Iterations 4
DICPCG:  Solving for p, Initial residual = 0.61438, Final residual = 9.05873e-08, No Iterations 185
time step continuity errors : sum local = 4.44907e-12, global = -1.85189e-15, cumulative = 5.72172e-13
DICPCG:  Solving for p, Initial residual = 0.142485, Final residual = 9.30346e-08, No Iterations 175
time step continuity errors : sum local = 2.4263e-12, global = 3.35443e-14, cumulative = 6.05716e-13
ExecutionTime = 0.82 s  ClockTime = 1 s

Time = 0.04

Courant Number mean: 0.081463 max: 0.618569
smoothSolver:  Solving for Ux, Initial residual = 0.00843424, Final residual = 8.76552e-09, No Iterations 4
smoothSolver:  Solving for Uy, Initial residual = 0.0122015, Final residual = 5.02952e-09, No Iterations 4
DICPCG:  Solving for p, Initial residual = 0.197107, Final residual = 9.28619e-08, No Iterations 164
time step continuity errors : sum local = 2.21387e-12, global = -3.91924e-14, cumulative = 5.66523e-13
DICPCG:  Solving for p, Initial residual = 0.0310454, Final residual = 9.63914e-08, No Iterations 156
time step continuity errors : sum local = 1.76039e-12, global = -5.84622e-15, cumulative = 5.60677e-13
ExecutionTime = 0.91 s  ClockTime = 1 s

Time = 0.05

Courant Number mean: 0.0814603 max: 0.612857
smoothSolver:  Solving for Ux, Initial residual = 0.00637843, Final residual = 5.61827e-09, No Iterations 4
smoothSolver:  Solving for Uy, Initial residual = 0.0102033, Final residual = 8.96981e-08, No Iterations 3
DICPCG:  Solving for p, Initial residual = 0.0945778, Final residual = 8.82759e-08, No Iterations 164
time step continuity errors : sum local = 1.53889e-12, global = 6.93052e-15, cumulative = 5.67608e-13
DICPCG:  Solving for p, Initial residual = 0.0125802, Final residual = 8.71556e-08, No Iterations 154
time step continuity errors : sum local = 1.31513e-12, global = 3.05947e-15, cumulative = 5.70667e-13
ExecutionTime = 0.99 s  ClockTime = 1 s

Time = 0.06

Courant Number mean: 0.0814582 max: 0.60548
smoothSolver:  Solving for Ux, Initial residual = 0.00514303, Final residual = 9.24416e-08, No Iterations 3
smoothSolver:  Solving for Uy, Initial residual = 0.00880006, Final residual = 7.78923e-08, No Iterations 3
DICPCG:  Solving for p, Initial residual = 0.0712791, Final residual = 8.30837e-08, No Iterations 163
time step continuity errors : sum local = 1.22154e-12, global = 3.77599e-15, cumulative = 5.74443e-13
DICPCG:  Solving for p, Initial residual = 0.0105473, Final residual = 8.60117e-08, No Iterations 153
time step continuity errors : sum local = 1.15222e-12, global = 1.92954e-15, cumulative = 5.76373e-13
ExecutionTime = 1.07 s  ClockTime = 1 s

Time = 0.07

Courant Number mean: 0.0814564 max: 0.597191
smoothSolver:  Solving for Ux, Initial residual = 0.00428738, Final residual = 7.71522e-08, No Iterations 3
smoothSolver:  Solving for Uy, Initial residual = 0.00777476, Final residual = 6.88979e-08, No Iterations 3
DICPCG:  Solving for p, Initial residual = 0.0586, Final residual = 8.63782e-08, No Iterations 162
time step continuity errors : sum local = 1.12305e-12, global = -6.7272e-15, cumulative = 5.69646e-13
DICPCG:  Solving for p, Initial residual = 0.00850475, Final residual = 9.05081e-08, No Iterations 151
time step continuity errors : sum local = 1.22072e-12, global = -2.61906e-15, cumulative = 5.67026e-13
ExecutionTime = 1.16 s  ClockTime = 1 s

Time = 0.08

Courant Number mean: 0.0814548 max: 0.588241
smoothSolver:  Solving for Ux, Initial residual = 0.00366885, Final residual = 6.56751e-08, No Iterations 3
smoothSolver:  Solving for Uy, Initial residual = 0.00698854, Final residual = 6.21132e-08, No Iterations 3
DICPCG:  Solving for p, Initial residual = 0.0452556, Final residual = 9.32969e-08, No Iterations 160
time step continuity errors : sum local = 1.23059e-12, global = -1.74383e-14, cumulative = 5.49588e-13
DICPCG:  Solving for p, Initial residual = 0.00706716, Final residual = 9.94672e-08, No Iterations 148
time step continuity errors : sum local = 1.35323e-12, global = -5.08149e-15, cumulative = 5.44507e-13
ExecutionTime = 1.25 s  ClockTime = 1 s

Time = 0.09

Courant Number mean: 0.0814535 max: 0.579712
smoothSolver:  Solving for Ux, Initial residual = 0.00320049, Final residual = 5.67957e-08, No Iterations 3
smoothSolver:  Solving for Uy, Initial residual = 0.00636255, Final residual = 5.68359e-08, No Iterations 3
DICPCG:  Solving for p, Initial residual = 0.0377186, Final residual = 9.25401e-08, No Iterations 158
time step continuity errors : sum local = 1.23888e-12, global = -2.49064e-14, cumulative = 5.196e-13
DICPCG:  Solving for p, Initial residual = 0.0060901, Final residual = 9.29019e-08, No Iterations 146
time step continuity errors : sum local = 1.27781e-12, global = 6.56353e-16, cumulative = 5.20257e-13
ExecutionTime = 1.32 s  ClockTime = 1 s

Time = 0.1

Courant Number mean: 0.0814522 max: 0.577376
smoothSolver:  Solving for Ux, Initial residual = 0.00283612, Final residual = 4.98919e-08, No Iterations 3
smoothSolver:  Solving for Uy, Initial residual = 0.00585536, Final residual = 5.26864e-08, No Iterations 3
DICPCG:  Solving for p, Initial residual = 0.0326862, Final residual = 8.99224e-08, No Iterations 157
time step continuity errors : sum local = 1.22116e-12, global = -2.62159e-14, cumulative = 4.94041e-13
DICPCG:  Solving for p, Initial residual = 0.00534875, Final residual = 9.96299e-08, No Iterations 133
time step continuity errors : sum local = 1.38375e-12, global = -2.53272e-14, cumulative = 4.68714e-13
ExecutionTime = 1.4 s  ClockTime = 1 s

Time = 0.11

Courant Number mean: 0.0814512 max: 0.574635
smoothSolver:  Solving for Ux, Initial residual = 0.00254576, Final residual = 4.44782e-08, No Iterations 3
smoothSolver:  Solving for Uy, Initial residual = 0.00544473, Final residual = 4.94088e-08, No Iterations 3
DICPCG:  Solving for p, Initial residual = 0.0287085, Final residual = 8.61668e-08, No Iterations 155
time step continuity errors : sum local = 1.1838e-12, global = -2.21756e-14, cumulative = 4.46538e-13
DICPCG:  Solving for p, Initial residual = 0.00474911, Final residual = 9.84726e-08, No Iterations 131
time step continuity errors : sum local = 1.37827e-12, global = -3.93594e-14, cumulative = 4.07179e-13
ExecutionTime = 1.49 s  ClockTime = 1 s

Time = 0.12

Courant Number mean: 0.0814502 max: 0.571499
smoothSolver:  Solving for Ux, Initial residual = 0.00231191, Final residual = 4.01891e-08, No Iterations 3
smoothSolver:  Solving for Uy, Initial residual = 0.00510673, Final residual = 4.68376e-08, No Iterations 3
DICPCG:  Solving for p, Initial residual = 0.0254816, Final residual = 9.24754e-08, No Iterations 154
time step continuity errors : sum local = 1.28212e-12, global = -1.3004e-14, cumulative = 3.94175e-13
DICPCG:  Solving for p, Initial residual = 0.00428653, Final residual = 9.59649e-08, No Iterations 130
time step continuity errors : sum local = 1.35143e-12, global = -3.54941e-14, cumulative = 3.5868e-13
ExecutionTime = 1.57 s  ClockTime = 1 s

Time = 0.13

Courant Number mean: 0.0814492 max: 0.568049
smoothSolver:  Solving for Ux, Initial residual = 0.00212193, Final residual = 3.6717e-08, No Iterations 3
smoothSolver:  Solving for Uy, Initial residual = 0.00482153, Final residual = 4.47884e-08, No Iterations 3
DICPCG:  Solving for p, Initial residual = 0.0229144, Final residual = 9.72694e-08, No Iterations 153
time step continuity errors : sum local = 1.35865e-12, global = 6.2392e-15, cumulative = 3.6492e-13
DICPCG:  Solving for p, Initial residual = 0.00393009, Final residual = 9.12912e-08, No Iterations 128
time step continuity errors : sum local = 1.2923e-12, global = -1.52941e-14, cumulative = 3.49626e-13
ExecutionTime = 1.64 s  ClockTime = 2 s

Time = 0.14

Courant Number mean: 0.0814484 max: 0.56436
smoothSolver:  Solving for Ux, Initial residual = 0.00196249, Final residual = 3.38006e-08, No Iterations 3
smoothSolver:  Solving for Uy, Initial residual = 0.00457671, Final residual = 4.31283e-08, No Iterations 3
DICPCG:  Solving for p, Initial residual = 0.0206483, Final residual = 9.39272e-08, No Iterations 152
time step continuity errors : sum local = 1.32043e-12, global = 2.42694e-14, cumulative = 3.73895e-13
DICPCG:  Solving for p, Initial residual = 0.00358662, Final residual = 8.56127e-08, No Iterations 127
time step continuity errors : sum local = 1.21813e-12, global = -1.54637e-15, cumulative = 3.72349e-13
ExecutionTime = 1.72 s  ClockTime = 2 s

Time = 0.15

Courant Number mean: 0.0814476 max: 0.560508
smoothSolver:  Solving for Ux, Initial residual = 0.00182648, Final residual = 3.13042e-08, No Iterations 3
smoothSolver:  Solving for Uy, Initial residual = 0.00436228, Final residual = 4.17759e-08, No Iterations 3
DICPCG:  Solving for p, Initial residual = 0.0186582, Final residual = 9.68013e-08, No Iterations 148
time step continuity errors : sum local = 1.36871e-12, global = 4.10522e-14, cumulative = 4.13401e-13
DICPCG:  Solving for p, Initial residual = 0.0032973, Final residual = 9.32031e-08, No Iterations 126
time step continuity errors : sum local = 1.3319e-12, global = 1.4474e-14, cumulative = 4.27875e-13
ExecutionTime = 1.79 s  ClockTime = 2 s

Time = 0.16

Courant Number mean: 0.0814468 max: 0.556817
smoothSolver:  Solving for Ux, Initial residual = 0.00170999, Final residual = 2.9158e-08, No Iterations 3
smoothSolver:  Solving for Uy, Initial residual = 0.00417618, Final residual = 4.06965e-08, No Iterations 3
DICPCG:  Solving for p, Initial residual = 0.0172637, Final residual = 8.99424e-08, No Iterations 147
time step continuity errors : sum local = 1.27795e-12, global = 3.35742e-14, cumulative = 4.61449e-13
DICPCG:  Solving for p, Initial residual = 0.00310582, Final residual = 8.44535e-08, No Iterations 126
time step continuity errors : sum local = 1.21142e-12, global = 2.65851e-14, cumulative = 4.88034e-13
ExecutionTime = 1.87 s  ClockTime = 2 s

Time = 0.17

Courant Number mean: 0.0814462 max: 0.553045
smoothSolver:  Solving for Ux, Initial residual = 0.00160847, Final residual = 2.74503e-08, No Iterations 3
smoothSolver:  Solving for Uy, Initial residual = 0.00401484, Final residual = 3.98299e-08, No Iterations 3
DICPCG:  Solving for p, Initial residual = 0.0160328, Final residual = 9.51535e-08, No Iterations 146
time step continuity errors : sum local = 1.35715e-12, global = 2.44526e-14, cumulative = 5.12487e-13
DICPCG:  Solving for p, Initial residual = 0.00292604, Final residual = 9.01054e-08, No Iterations 125
time step continuity errors : sum local = 1.29552e-12, global = 5.00143e-14, cumulative = 5.62501e-13
ExecutionTime = 1.95 s  ClockTime = 2 s

Time = 0.18

Courant Number mean: 0.0814455 max: 0.549236
smoothSolver:  Solving for Ux, Initial residual = 0.00151963, Final residual = 2.61837e-08, No Iterations 3
smoothSolver:  Solving for Uy, Initial residual = 0.00387365, Final residual = 3.91225e-08, No Iterations 3
DICPCG:  Solving for p, Initial residual = 0.0150646, Final residual = 9.44535e-08, No Iterations 133
time step continuity errors : sum local = 1.35081e-12, global = -9.92779e-17, cumulative = 5.62402e-13
DICPCG:  Solving for p, Initial residual = 0.0027614, Final residual = 8.90506e-08, No Iterations 124
time step continuity errors : sum local = 1.28248e-12, global = 5.80422e-14, cumulative = 6.20444e-13
ExecutionTime = 2.03 s  ClockTime = 2 s

Time = 0.19

Courant Number mean: 0.0814449 max: 0.546375
smoothSolver:  Solving for Ux, Initial residual = 0.00144213, Final residual = 2.50844e-08, No Iterations 3
smoothSolver:  Solving for Uy, Initial residual = 0.00374933, Final residual = 3.85433e-08, No Iterations 3
DICPCG:  Solving for p, Initial residual = 0.0141027, Final residual = 8.32712e-08, No Iterations 131
time step continuity errors : sum local = 1.19319e-12, global = 2.17125e-14, cumulative = 6.42156e-13
DICPCG:  Solving for p, Initial residual = 0.00258551, Final residual = 9.61026e-08, No Iterations 118
time step continuity errors : sum local = 1.38583e-12, global = 5.15099e-14, cumulative = 6.93666e-13
ExecutionTime = 2.1 s  ClockTime = 2 s

Time = 0.2

Courant Number mean: 0.0814443 max: 0.545045
smoothSolver:  Solving for Ux, Initial residual = 0.0013733, Final residual = 2.41615e-08, No Iterations 3
smoothSolver:  Solving for Uy, Initial residual = 0.00363805, Final residual = 3.80851e-08, No Iterations 3
DICPCG:  Solving for p, Initial residual = 0.0134919, Final residual = 7.76585e-08, No Iterations 132
time step continuity errors : sum local = 1.11451e-12, global = 1.16916e-14, cumulative = 7.05358e-13
DICPCG:  Solving for p, Initial residual = 0.00248045, Final residual = 8.16627e-08, No Iterations 117
time step continuity errors : sum local = 1.17854e-12, global = 2.94046e-14, cumulative = 7.34762e-13
ExecutionTime = 2.17 s  ClockTime = 2 s

Time = 0.21

Courant Number mean: 0.0814438 max: 0.543679
smoothSolver:  Solving for Ux, Initial residual = 0.00131174, Final residual = 2.33752e-08, No Iterations 3
smoothSolver:  Solving for Uy, Initial residual = 0.00353872, Final residual = 3.76792e-08, No Iterations 3
DICPCG:  Solving for p, Initial residual = 0.0129412, Final residual = 9.90723e-08, No Iterations 133
time step continuity errors : sum local = 1.42363e-12, global = -7.88315e-15, cumulative = 7.26879e-13
DICPCG:  Solving for p, Initial residual = 0.00235405, Final residual = 9.9383e-08, No Iterations 115
time step continuity errors : sum local = 1.4359e-12, global = -1.56277e-14, cumulative = 7.11251e-13
ExecutionTime = 2.24 s  ClockTime = 2 s

Time = 0.22

Courant Number mean: 0.0814433 max: 0.542359
smoothSolver:  Solving for Ux, Initial residual = 0.0012566, Final residual = 2.26983e-08, No Iterations 3
smoothSolver:  Solving for Uy, Initial residual = 0.00344836, Final residual = 3.73317e-08, No Iterations 3
DICPCG:  Solving for p, Initial residual = 0.0124441, Final residual = 8.22745e-08, No Iterations 146
time step continuity errors : sum local = 1.18352e-12, global = -1.19235e-15, cumulative = 7.10059e-13
DICPCG:  Solving for p, Initial residual = 0.00229207, Final residual = 9.5265e-08, No Iterations 115
time step continuity errors : sum local = 1.3769e-12, global = -2.44806e-14, cumulative = 6.85579e-13
ExecutionTime = 2.32 s  ClockTime = 2 s

Time = 0.23

Courant Number mean: 0.0814429 max: 0.540968
smoothSolver:  Solving for Ux, Initial residual = 0.00120713, Final residual = 2.21257e-08, No Iterations 3
smoothSolver:  Solving for Uy, Initial residual = 0.00336766, Final residual = 3.7028e-08, No Iterations 3
DICPCG:  Solving for p, Initial residual = 0.0116668, Final residual = 9.98028e-08, No Iterations 145
time step continuity errors : sum local = 1.43659e-12, global = -1.42953e-14, cumulative = 6.71283e-13
DICPCG:  Solving for p, Initial residual = 0.00215535, Final residual = 8.96087e-08, No Iterations 116
time step continuity errors : sum local = 1.29516e-12, global = -3.0783e-14, cumulative = 6.405e-13
ExecutionTime = 2.39 s  ClockTime = 2 s

Time = 0.24

Courant Number mean: 0.0814425 max: 0.539516
smoothSolver:  Solving for Ux, Initial residual = 0.00116227, Final residual = 2.16255e-08, No Iterations 3
smoothSolver:  Solving for Uy, Initial residual = 0.00329471, Final residual = 3.67477e-08, No Iterations 3
DICPCG:  Solving for p, Initial residual = 0.0111458, Final residual = 8.05036e-08, No Iterations 146
time step continuity errors : sum local = 1.15906e-12, global = -1.49123e-14, cumulative = 6.25588e-13
DICPCG:  Solving for p, Initial residual = 0.00204808, Final residual = 9.84899e-08, No Iterations 117
time step continuity errors : sum local = 1.42338e-12, global = -3.07066e-14, cumulative = 5.94881e-13
ExecutionTime = 2.47 s  ClockTime = 2 s

Time = 0.25

Courant Number mean: 0.0814421 max: 0.538015
smoothSolver:  Solving for Ux, Initial residual = 0.00112149, Final residual = 2.12253e-08, No Iterations 3
smoothSolver:  Solving for Uy, Initial residual = 0.00322809, Final residual = 3.64755e-08, No Iterations 3
DICPCG:  Solving for p, Initial residual = 0.0107612, Final residual = 7.9861e-08, No Iterations 146
time step continuity errors : sum local = 1.14984e-12, global = -1.58727e-14, cumulative = 5.79009e-13
DICPCG:  Solving for p, Initial residual = 0.0019741, Final residual = 9.9806e-08, No Iterations 118
time step continuity errors : sum local = 1.44194e-12, global = -2.69032e-14, cumulative = 5.52105e-13
ExecutionTime = 2.54 s  ClockTime = 2 s

Time = 0.26

Courant Number mean: 0.0814417 max: 0.536477
smoothSolver:  Solving for Ux, Initial residual = 0.0010842, Final residual = 2.08978e-08, No Iterations 3
smoothSolver:  Solving for Uy, Initial residual = 0.00316574, Final residual = 3.62145e-08, No Iterations 3
DICPCG:  Solving for p, Initial residual = 0.0104481, Final residual = 9.4525e-08, No Iterations 133
time step continuity errors : sum local = 1.36057e-12, global = -7.77039e-14, cumulative = 4.74402e-13
DICPCG:  Solving for p, Initial residual = 0.0019094, Final residual = 9.41137e-08, No Iterations 109
time step continuity errors : sum local = 1.35874e-12, global = -2.99144e-14, cumulative = 4.44487e-13
ExecutionTime = 2.61 s  ClockTime = 3 s

Time = 0.27

Courant Number mean: 0.0814414 max: 0.534911
smoothSolver:  Solving for Ux, Initial residual = 0.00105022, Final residual = 2.0619e-08, No Iterations 3
smoothSolver:  Solving for Uy, Initial residual = 0.00310846, Final residual = 3.59495e-08, No Iterations 3
DICPCG:  Solving for p, Initial residual = 0.0100669, Final residual = 8.12148e-08, No Iterations 146
time step continuity errors : sum local = 1.16817e-12, global = -2.74734e-14, cumulative = 4.17014e-13
DICPCG:  Solving for p, Initial residual = 0.0018301, Final residual = 9.66132e-08, No Iterations 119
time step continuity errors : sum local = 1.39324e-12, global = -4.01813e-14, cumulative = 3.76833e-13
ExecutionTime = 2.68 s  ClockTime = 3 s

Time = 0.28

Courant Number mean: 0.0814411 max: 0.533325
smoothSolver:  Solving for Ux, Initial residual = 0.00101927, Final residual = 2.03838e-08, No Iterations 3
smoothSolver:  Solving for Uy, Initial residual = 0.00305572, Final residual = 3.56832e-08, No Iterations 3
DICPCG:  Solving for p, Initial residual = 0.0099513, Final residual = 8.3144e-08, No Iterations 146
time step continuity errors : sum local = 1.1947e-12, global = -3.12692e-14, cumulative = 3.45563e-13
DICPCG:  Solving for p, Initial residual = 0.00181116, Final residual = 8.84159e-08, No Iterations 117
time step continuity errors : sum local = 1.27325e-12, global = -5.54712e-15, cumulative = 3.40016e-13
ExecutionTime = 2.76 s  ClockTime = 3 s

Time = 0.29

Courant Number mean: 0.0814409 max: 0.531879
smoothSolver:  Solving for Ux, Initial residual = 0.000991052, Final residual = 2.01743e-08, No Iterations 3
smoothSolver:  Solving for Uy, Initial residual = 0.0030072, Final residual = 3.53988e-08, No Iterations 3
DICPCG:  Solving for p, Initial residual = 0.0096496, Final residual = 8.19532e-08, No Iterations 146
time step continuity errors : sum local = 1.17611e-12, global = -2.93705e-14, cumulative = 3.10646e-13
DICPCG:  Solving for p, Initial residual = 0.00176093, Final residual = 9.79831e-08, No Iterations 116
time step continuity errors : sum local = 1.40907e-12, global = 3.3711e-14, cumulative = 3.44357e-13
ExecutionTime = 2.84 s  ClockTime = 3 s

Time = 0.3

Courant Number mean: 0.0814407 max: 0.530508
smoothSolver:  Solving for Ux, Initial residual = 0.000964925, Final residual = 1.99983e-08, No Iterations 3
smoothSolver:  Solving for Uy, Initial residual = 0.00296228, Final residual = 3.51081e-08, No Iterations 3
DICPCG:  Solving for p, Initial residual = 0.00898749, Final residual = 8.28869e-08, No Iterations 146
time step continuity errors : sum local = 1.1881e-12, global = -2.98486e-14, cumulative = 3.14508e-13
DICPCG:  Solving for p, Initial residual = 0.00166289, Final residual = 9.37108e-08, No Iterations 116
time step continuity errors : sum local = 1.3459e-12, global = 3.12561e-14, cumulative = 3.45764e-13
ExecutionTime = 2.91 s  ClockTime = 3 s

Time = 0.31

Courant Number mean: 0.0814405 max: 0.529139
smoothSolver:  Solving for Ux, Initial residual = 0.00094067, Final residual = 1.98415e-08, No Iterations 3
smoothSolver:  Solving for Uy, Initial residual = 0.0029217, Final residual = 3.47995e-08, No Iterations 3
DICPCG:  Solving for p, Initial residual = 0.00879787, Final residual = 8.28566e-08, No Iterations 146
time step continuity errors : sum local = 1.18622e-12, global = -2.88913e-14, cumulative = 3.16873e-13
DICPCG:  Solving for p, Initial residual = 0.00162701, Final residual = 9.44776e-08, No Iterations 116
time step continuity errors : sum local = 1.35493e-12, global = 2.65078e-15, cumulative = 3.19524e-13
ExecutionTime = 2.99 s  ClockTime = 3 s

Time = 0.32

Courant Number mean: 0.0814404 max: 0.527778
smoothSolver:  Solving for Ux, Initial residual = 0.000918384, Final residual = 1.97021e-08, No Iterations 3
smoothSolver:  Solving for Uy, Initial residual = 0.00288452, Final residual = 3.4474e-08, No Iterations 3
DICPCG:  Solving for p, Initial residual = 0.00862133, Final residual = 9.8963e-08, No Iterations 145
time step continuity errors : sum local = 1.41508e-12, global = -2.77551e-14, cumulative = 2.91769e-13
DICPCG:  Solving for p, Initial residual = 0.00159119, Final residual = 7.62525e-08, No Iterations 116
time step continuity errors : sum local = 1.09222e-12, global = 2.90812e-14, cumulative = 3.2085e-13
ExecutionTime = 3.06 s  ClockTime = 3 s

Time = 0.33

Courant Number mean: 0.0814403 max: 0.526428
smoothSolver:  Solving for Ux, Initial residual = 0.000897592, Final residual = 1.95777e-08, No Iterations 3
smoothSolver:  Solving for Uy, Initial residual = 0.00285048, Final residual = 3.41272e-08, No Iterations 3
DICPCG:  Solving for p, Initial residual = 0.00829265, Final residual = 9.56743e-08, No Iterations 144
time step continuity errors : sum local = 1.36659e-12, global = -9.66786e-15, cumulative = 3.11182e-13
DICPCG:  Solving for p, Initial residual = 0.00153582, Final residual = 8.28128e-08, No Iterations 116
time step continuity errors : sum local = 1.1848e-12, global = 4.69948e-14, cumulative = 3.58177e-13
ExecutionTime = 3.13 s  ClockTime = 3 s

Time = 0.34

Courant Number mean: 0.0814403 max: 0.525093
smoothSolver:  Solving for Ux, Initial residual = 0.000878149, Final residual = 1.94659e-08, No Iterations 3
smoothSolver:  Solving for Uy, Initial residual = 0.00281831, Final residual = 3.37546e-08, No Iterations 3
DICPCG:  Solving for p, Initial residual = 0.00807662, Final residual = 9.58772e-08, No Iterations 145
time step continuity errors : sum local = 1.36795e-12, global = -3.17622e-14, cumulative = 3.26415e-13
DICPCG:  Solving for p, Initial residual = 0.00149589, Final residual = 8.49304e-08, No Iterations 117
time step continuity errors : sum local = 1.21355e-12, global = 2.07881e-14, cumulative = 3.47203e-13
ExecutionTime = 3.21 s  ClockTime = 3 s

Time = 0.35

Courant Number mean: 0.0814402 max: 0.523775
smoothSolver:  Solving for Ux, Initial residual = 0.00086001, Final residual = 1.9365e-08, No Iterations 3
smoothSolver:  Solving for Uy, Initial residual = 0.00278881, Final residual = 3.33587e-08, No Iterations 3
DICPCG:  Solving for p, Initial residual = 0.00792022, Final residual = 8.61885e-08, No Iterations 146
time step continuity errors : sum local = 1.22825e-12, global = -3.24714e-14, cumulative = 3.14731e-13
DICPCG:  Solving for p, Initial residual = 0.00146331, Final residual = 9.30152e-08, No Iterations 117
time step continuity errors : sum local = 1.32727e-12, global = 1.26384e-14, cumulative = 3.2737e-13
ExecutionTime = 3.29 s  ClockTime = 3 s

Time = 0.36

Courant Number mean: 0.0814403 max: 0.522476
smoothSolver:  Solving for Ux, Initial residual = 0.00084328, Final residual = 1.92728e-08, No Iterations 3
smoothSolver:  Solving for Uy, Initial residual = 0.00276092, Final residual = 3.29359e-08, No Iterations 3
DICPCG:  Solving for p, Initial residual = 0.00779056, Final residual = 9.01758e-08, No Iterations 146
time step continuity errors : sum local = 1.28348e-12, global = -3.33358e-14, cumulative = 2.94034e-13
DICPCG:  Solving for p, Initial residual = 0.00142494, Final residual = 9.77068e-08, No Iterations 110
time step continuity errors : sum local = 1.39237e-12, global = 1.05868e-14, cumulative = 3.04621e-13
ExecutionTime = 3.36 s  ClockTime = 3 s

Time = 0.37

Courant Number mean: 0.0814403 max: 0.521211
smoothSolver:  Solving for Ux, Initial residual = 0.000827556, Final residual = 1.91824e-08, No Iterations 3
smoothSolver:  Solving for Uy, Initial residual = 0.00273442, Final residual = 3.24937e-08, No Iterations 3
DICPCG:  Solving for p, Initial residual = 0.00761061, Final residual = 9.35418e-08, No Iterations 146
time step continuity errors : sum local = 1.32965e-12, global = -3.37103e-14, cumulative = 2.70911e-13
DICPCG:  Solving for p, Initial residual = 0.00139208, Final residual = 9.98899e-08, No Iterations 119
time step continuity errors : sum local = 1.42132e-12, global = -6.47606e-14, cumulative = 2.0615e-13
ExecutionTime = 3.43 s  ClockTime = 3 s

Time = 0.38

Courant Number mean: 0.0814404 max: 0.520437
smoothSolver:  Solving for Ux, Initial residual = 0.000812793, Final residual = 1.90994e-08, No Iterations 3
smoothSolver:  Solving for Uy, Initial residual = 0.00270949, Final residual = 3.20475e-08, No Iterations 3
DICPCG:  Solving for p, Initial residual = 0.00747843, Final residual = 9.24559e-08, No Iterations 146
time step continuity errors : sum local = 1.3125e-12, global = -3.23635e-14, cumulative = 1.73786e-13
DICPCG:  Solving for p, Initial residual = 0.00137233, Final residual = 9.22003e-08, No Iterations 121
time step continuity errors : sum local = 1.31023e-12, global = -5.62044e-14, cumulative = 1.17582e-13
ExecutionTime = 3.52 s  ClockTime = 3 s

Time = 0.39

Courant Number mean: 0.0814405 max: 0.519996
smoothSolver:  Solving for Ux, Initial residual = 0.000798935, Final residual = 1.90211e-08, No Iterations 3
smoothSolver:  Solving for Uy, Initial residual = 0.00268638, Final residual = 3.15962e-08, No Iterations 3
DICPCG:  Solving for p, Initial residual = 0.00741023, Final residual = 9.77166e-08, No Iterations 146
time step continuity errors : sum local = 1.38565e-12, global = -3.2218e-14, cumulative = 8.53641e-14
DICPCG:  Solving for p, Initial residual = 0.00134934, Final residual = 9.60028e-08, No Iterations 121
time step continuity errors : sum local = 1.36274e-12, global = -6.03421e-14, cumulative = 2.5022e-14
ExecutionTime = 3.59 s  ClockTime = 4 s

Time = 0.4

Courant Number mean: 0.0814406 max: 0.519645
smoothSolver:  Solving for Ux, Initial residual = 0.000785892, Final residual = 1.89455e-08, No Iterations 3
smoothSolver:  Solving for Uy, Initial residual = 0.00266481, Final residual = 3.11722e-08, No Iterations 3
DICPCG:  Solving for p, Initial residual = 0.00719118, Final residual = 8.67906e-08, No Iterations 147
time step continuity errors : sum local = 1.22931e-12, global = -2.13943e-14, cumulative = 3.62768e-15
DICPCG:  Solving for p, Initial residual = 0.00131467, Final residual = 9.81058e-08, No Iterations 121
time step continuity errors : sum local = 1.39058e-12, global = -6.53547e-14, cumulative = -6.1727e-14
ExecutionTime = 3.66 s  ClockTime = 4 s

Time = 0.41

Courant Number mean: 0.0814408 max: 0.519285
smoothSolver:  Solving for Ux, Initial residual = 0.00077343, Final residual = 1.88741e-08, No Iterations 3
smoothSolver:  Solving for Uy, Initial residual = 0.00264533, Final residual = 3.07652e-08, No Iterations 3
DICPCG:  Solving for p, Initial residual = 0.00684646, Final residual = 8.36883e-08, No Iterations 146
time step continuity errors : sum local = 1.18391e-12, global = -8.46631e-15, cumulative = -7.01933e-14
DICPCG:  Solving for p, Initial residual = 0.0012594, Final residual = 8.75682e-08, No Iterations 122
time step continuity errors : sum local = 1.24002e-12, global = -5.07495e-14, cumulative = -1.20943e-13
ExecutionTime = 3.74 s  ClockTime = 4 s

Time = 0.42

Courant Number mean: 0.081441 max: 0.518916
smoothSolver:  Solving for Ux, Initial residual = 0.00076179, Final residual = 1.88083e-08, No Iterations 3
smoothSolver:  Solving for Uy, Initial residual = 0.00262763, Final residual = 3.03801e-08, No Iterations 3
DICPCG:  Solving for p, Initial residual = 0.00670983, Final residual = 9.98266e-08, No Iterations 146
time step continuity errors : sum local = 1.41086e-12, global = -4.35111e-14, cumulative = -1.64454e-13
DICPCG:  Solving for p, Initial residual = 0.00123526, Final residual = 8.84413e-08, No Iterations 122
time step continuity errors : sum local = 1.251e-12, global = -5.28489e-14, cumulative = -2.17303e-13
ExecutionTime = 3.81 s  ClockTime = 4 s

Time = 0.43

Courant Number mean: 0.0814412 max: 0.51854
smoothSolver:  Solving for Ux, Initial residual = 0.000750771, Final residual = 1.87378e-08, No Iterations 3
smoothSolver:  Solving for Uy, Initial residual = 0.00261103, Final residual = 2.99971e-08, No Iterations 3
DICPCG:  Solving for p, Initial residual = 0.00655564, Final residual = 8.971e-08, No Iterations 147
time step continuity errors : sum local = 1.26662e-12, global = -2.89555e-14, cumulative = -2.46258e-13
DICPCG:  Solving for p, Initial residual = 0.00120852, Final residual = 8.76217e-08, No Iterations 122
time step continuity errors : sum local = 1.23811e-12, global = -5.74785e-14, cumulative = -3.03737e-13
ExecutionTime = 3.89 s  ClockTime = 4 s

Time = 0.44

Courant Number mean: 0.0814414 max: 0.518158
smoothSolver:  Solving for Ux, Initial residual = 0.000740289, Final residual = 1.867e-08, No Iterations 3
smoothSolver:  Solving for Uy, Initial residual = 0.00259484, Final residual = 2.95965e-08, No Iterations 3
DICPCG:  Solving for p, Initial residual = 0.0064412, Final residual = 9.18968e-08, No Iterations 147
time step continuity errors : sum local = 1.29627e-12, global = -2.6719e-14, cumulative = -3.30456e-13
DICPCG:  Solving for p, Initial residual = 0.00118307, Final residual = 8.69836e-08, No Iterations 122
time step continuity errors : sum local = 1.22789e-12, global = -5.78473e-14, cumulative = -3.88303e-13
ExecutionTime = 3.97 s  ClockTime = 4 s

Time = 0.45

Courant Number mean: 0.0814417 max: 0.517768
smoothSolver:  Solving for Ux, Initial residual = 0.000730237, Final residual = 1.86067e-08, No Iterations 3
smoothSolver:  Solving for Uy, Initial residual = 0.00257963, Final residual = 2.91724e-08, No Iterations 3
DICPCG:  Solving for p, Initial residual = 0.00634141, Final residual = 9.33774e-08, No Iterations 147
time step continuity errors : sum local = 1.31598e-12, global = -2.49897e-14, cumulative = -4.13293e-13
DICPCG:  Solving for p, Initial residual = 0.00116117, Final residual = 9.27822e-08, No Iterations 122
time step continuity errors : sum local = 1.30854e-12, global = -5.71887e-14, cumulative = -4.70482e-13
ExecutionTime = 4.05 s  ClockTime = 4 s

Time = 0.46

Courant Number mean: 0.0814419 max: 0.517371
smoothSolver:  Solving for Ux, Initial residual = 0.000720709, Final residual = 1.85445e-08, No Iterations 3
smoothSolver:  Solving for Uy, Initial residual = 0.00256509, Final residual = 2.87685e-08, No Iterations 3
DICPCG:  Solving for p, Initial residual = 0.0062165, Final residual = 9.46794e-08, No Iterations 147
time step continuity errors : sum local = 1.33316e-12, global = -2.3852e-14, cumulative = -4.94334e-13
DICPCG:  Solving for p, Initial residual = 0.00113747, Final residual = 9.07612e-08, No Iterations 122
time step continuity errors : sum local = 1.27883e-12, global = -5.90876e-14, cumulative = -5.53421e-13
ExecutionTime = 4.12 s  ClockTime = 4 s

Time = 0.47

Courant Number mean: 0.0814422 max: 0.516965
smoothSolver:  Solving for Ux, Initial residual = 0.000711545, Final residual = 1.8485e-08, No Iterations 3
smoothSolver:  Solving for Uy, Initial residual = 0.00255139, Final residual = 2.83683e-08, No Iterations 3
DICPCG:  Solving for p, Initial residual = 0.00613329, Final residual = 9.54187e-08, No Iterations 147
time step continuity errors : sum local = 1.34248e-12, global = -2.33895e-14, cumulative = -5.76811e-13
DICPCG:  Solving for p, Initial residual = 0.00111844, Final residual = 9.39911e-08, No Iterations 122
time step continuity errors : sum local = 1.32332e-12, global = -5.87576e-14, cumulative = -6.35568e-13
ExecutionTime = 4.21 s  ClockTime = 4 s

Time = 0.48

Courant Number mean: 0.0814425 max: 0.516551
smoothSolver:  Solving for Ux, Initial residual = 0.000702706, Final residual = 1.84249e-08, No Iterations 3
smoothSolver:  Solving for Uy, Initial residual = 0.00253817, Final residual = 2.80096e-08, No Iterations 3
DICPCG:  Solving for p, Initial residual = 0.00597611, Final residual = 9.65073e-08, No Iterations 147
time step continuity errors : sum local = 1.35692e-12, global = -2.15902e-14, cumulative = -6.57158e-13
DICPCG:  Solving for p, Initial residual = 0.00109177, Final residual = 9.38036e-08, No Iterations 122
time step continuity errors : sum local = 1.31985e-12, global = -6.01647e-14, cumulative = -7.17323e-13
ExecutionTime = 4.28 s  ClockTime = 4 s

Time = 0.49

Courant Number mean: 0.0814428 max: 0.516126
smoothSolver:  Solving for Ux, Initial residual = 0.000694264, Final residual = 1.83618e-08, No Iterations 3
smoothSolver:  Solving for Uy, Initial residual = 0.00252547, Final residual = 2.76295e-08, No Iterations 3
DICPCG:  Solving for p, Initial residual = 0.00585529, Final residual = 9.74176e-08, No Iterations 147
time step continuity errors : sum local = 1.36904e-12, global = -2.09871e-14, cumulative = -7.3831e-13
DICPCG:  Solving for p, Initial residual = 0.00106774, Final residual = 9.48357e-08, No Iterations 122
time step continuity errors : sum local = 1.33376e-12, global = -6.11701e-14, cumulative = -7.9948e-13
ExecutionTime = 4.36 s  ClockTime = 4 s

Time = 0.5

Courant Number mean: 0.0814431 max: 0.515691
smoothSolver:  Solving for Ux, Initial residual = 0.000686278, Final residual = 1.82982e-08, No Iterations 3
smoothSolver:  Solving for Uy, Initial residual = 0.00251345, Final residual = 2.72383e-08, No Iterations 3
DICPCG:  Solving for p, Initial residual = 0.00578026, Final residual = 9.46251e-08, No Iterations 147
time step continuity errors : sum local = 1.32921e-12, global = -1.999e-14, cumulative = -8.1947e-13
DICPCG:  Solving for p, Initial residual = 0.00104798, Final residual = 9.49923e-08, No Iterations 122
time step continuity errors : sum local = 1.33528e-12, global = -6.19794e-14, cumulative = -8.8145e-13
ExecutionTime = 4.43 s  ClockTime = 4 s

Time = 0.51

Courant Number mean: 0.0814435 max: 0.515243
smoothSolver:  Solving for Ux, Initial residual = 0.000678535, Final residual = 1.82327e-08, No Iterations 3
smoothSolver:  Solving for Uy, Initial residual = 0.00250242, Final residual = 2.68352e-08, No Iterations 3
DICPCG:  Solving for p, Initial residual = 0.00567901, Final residual = 9.27352e-08, No Iterations 148
time step continuity errors : sum local = 1.30216e-12, global = -1.35914e-14, cumulative = -8.95041e-13
DICPCG:  Solving for p, Initial residual = 0.00102677, Final residual = 9.42141e-08, No Iterations 122
time step continuity errors : sum local = 1.3239e-12, global = -6.22552e-14, cumulative = -9.57296e-13
ExecutionTime = 4.5 s  ClockTime = 4 s

Time = 0.52

Courant Number mean: 0.0814438 max: 0.514781
smoothSolver:  Solving for Ux, Initial residual = 0.000671049, Final residual = 1.8164e-08, No Iterations 3
smoothSolver:  Solving for Uy, Initial residual = 0.0024914, Final residual = 2.64147e-08, No Iterations 3
DICPCG:  Solving for p, Initial residual = 0.00558626, Final residual = 9.88774e-08, No Iterations 147
time step continuity errors : sum local = 1.38801e-12, global = -1.73948e-14, cumulative = -9.74691e-13
DICPCG:  Solving for p, Initial residual = 0.00100626, Final residual = 9.3861e-08, No Iterations 122
time step continuity errors : sum local = 1.31852e-12, global = -6.27827e-14, cumulative = -1.03747e-12
ExecutionTime = 4.59 s  ClockTime = 5 s

Time = 0.53

Courant Number mean: 0.0814442 max: 0.514304
smoothSolver:  Solving for Ux, Initial residual = 0.000663906, Final residual = 1.80918e-08, No Iterations 3
smoothSolver:  Solving for Uy, Initial residual = 0.00248051, Final residual = 2.60022e-08, No Iterations 3
DICPCG:  Solving for p, Initial residual = 0.00553978, Final residual = 9.732e-08, No Iterations 147
time step continuity errors : sum local = 1.36589e-12, global = -1.77867e-14, cumulative = -1.05526e-12
DICPCG:  Solving for p, Initial residual = 0.000987549, Final residual = 9.46158e-08, No Iterations 122
time step continuity errors : sum local = 1.3289e-12, global = -6.40891e-14, cumulative = -1.11935e-12
ExecutionTime = 4.66 s  ClockTime = 5 s

Time = 0.54

Courant Number mean: 0.0814445 max: 0.51381
smoothSolver:  Solving for Ux, Initial residual = 0.000657199, Final residual = 1.80169e-08, No Iterations 3
smoothSolver:  Solving for Uy, Initial residual = 0.00246985, Final residual = 2.5609e-08, No Iterations 3
DICPCG:  Solving for p, Initial residual = 0.00545566, Final residual = 9.85343e-08, No Iterations 147
time step continuity errors : sum local = 1.3826e-12, global = -1.7285e-14, cumulative = -1.13663e-12
DICPCG:  Solving for p, Initial residual = 0.000971319, Final residual = 9.16188e-08, No Iterations 122
time step continuity errors : sum local = 1.28633e-12, global = -6.5455e-14, cumulative = -1.20209e-12
ExecutionTime = 4.74 s  ClockTime = 5 s

Time = 0.55

Courant Number mean: 0.0814449 max: 0.513299
smoothSolver:  Solving for Ux, Initial residual = 0.000650744, Final residual = 1.79389e-08, No Iterations 3
smoothSolver:  Solving for Uy, Initial residual = 0.0024595, Final residual = 2.52366e-08, No Iterations 3
DICPCG:  Solving for p, Initial residual = 0.00533123, Final residual = 9.85759e-08, No Iterations 147
time step continuity errors : sum local = 1.38284e-12, global = -1.62234e-14, cumulative = -1.21831e-12
DICPCG:  Solving for p, Initial residual = 0.00095161, Final residual = 9.19214e-08, No Iterations 122
time step continuity errors : sum local = 1.2903e-12, global = -6.76517e-14, cumulative = -1.28596e-12
ExecutionTime = 4.81 s  ClockTime = 5 s

Time = 0.56

Courant Number mean: 0.0814453 max: 0.512769
smoothSolver:  Solving for Ux, Initial residual = 0.000644501, Final residual = 1.7857e-08, No Iterations 3
smoothSolver:  Solving for Uy, Initial residual = 0.002449, Final residual = 2.48666e-08, No Iterations 3
DICPCG:  Solving for p, Initial residual = 0.00528206, Final residual = 9.80673e-08, No Iterations 147
time step continuity errors : sum local = 1.37561e-12, global = -1.51978e-14, cumulative = -1.30116e-12
DICPCG:  Solving for p, Initial residual = 0.000935988, Final residual = 9.15884e-08, No Iterations 122
time step continuity errors : sum local = 1.28562e-12, global = -7.05204e-14, cumulative = -1.37168e-12
ExecutionTime = 4.89 s  ClockTime = 5 s

Time = 0.57

Courant Number mean: 0.0814457 max: 0.512219
smoothSolver:  Solving for Ux, Initial residual = 0.000638537, Final residual = 1.77734e-08, No Iterations 3
smoothSolver:  Solving for Uy, Initial residual = 0.00243825, Final residual = 2.44747e-08, No Iterations 3
DICPCG:  Solving for p, Initial residual = 0.00520041, Final residual = 9.95504e-08, No Iterations 147
time step continuity errors : sum local = 1.39664e-12, global = -1.44286e-14, cumulative = -1.38611e-12
DICPCG:  Solving for p, Initial residual = 0.000920708, Final residual = 8.98555e-08, No Iterations 122
time step continuity errors : sum local = 1.26163e-12, global = -7.50775e-14, cumulative = -1.46119e-12
ExecutionTime = 4.97 s  ClockTime = 5 s

Time = 0.58

Courant Number mean: 0.0814461 max: 0.511648
smoothSolver:  Solving for Ux, Initial residual = 0.000632806, Final residual = 1.76875e-08, No Iterations 3
smoothSolver:  Solving for Uy, Initial residual = 0.0024276, Final residual = 2.40572e-08, No Iterations 3
DICPCG:  Solving for p, Initial residual = 0.00514517, Final residual = 9.34403e-08, No Iterations 148
time step continuity errors : sum local = 1.31134e-12, global = -1.03731e-14, cumulative = -1.47156e-12
DICPCG:  Solving for p, Initial residual = 0.000903794, Final residual = 9.74022e-08, No Iterations 120
time step continuity errors : sum local = 1.36804e-12, global = -1.22949e-13, cumulative = -1.59451e-12
ExecutionTime = 5.05 s  ClockTime = 5 s

Time = 0.59

Courant Number mean: 0.0814465 max: 0.511056
smoothSolver:  Solving for Ux, Initial residual = 0.000627309, Final residual = 1.7598e-08, No Iterations 3
smoothSolver:  Solving for Uy, Initial residual = 0.00241778, Final residual = 2.36146e-08, No Iterations 3
DICPCG:  Solving for p, Initial residual = 0.00508336, Final residual = 9.55704e-08, No Iterations 148
time step continuity errors : sum local = 1.3418e-12, global = -1.03292e-14, cumulative = -1.60484e-12
DICPCG:  Solving for p, Initial residual = 0.000894037, Final residual = 9.78946e-08, No Iterations 96
time step continuity errors : sum local = 1.37557e-12, global = -7.19824e-14, cumulative = -1.67682e-12
ExecutionTime = 5.12 s  ClockTime = 5 s

Time = 0.6

Courant Number mean: 0.0814469 max: 0.510441
smoothSolver:  Solving for Ux, Initial residual = 0.000622086, Final residual = 1.75039e-08, No Iterations 3
smoothSolver:  Solving for Uy, Initial residual = 0.00240783, Final residual = 2.31857e-08, No Iterations 3
DICPCG:  Solving for p, Initial residual = 0.00502454, Final residual = 9.56938e-08, No Iterations 148
time step continuity errors : sum local = 1.34426e-12, global = -1.00625e-14, cumulative = -1.68689e-12
DICPCG:  Solving for p, Initial residual = 0.000875816, Final residual = 9.17599e-08, No Iterations 97
time step continuity errors : sum local = 1.29012e-12, global = 1.64198e-13, cumulative = -1.52269e-12
ExecutionTime = 5.18 s  ClockTime = 5 s

Time = 0.61

Courant Number mean: 0.0814474 max: 0.509804
smoothSolver:  Solving for Ux, Initial residual = 0.00061706, Final residual = 1.74087e-08, No Iterations 3
smoothSolver:  Solving for Uy, Initial residual = 0.0023978, Final residual = 2.2732e-08, No Iterations 3
DICPCG:  Solving for p, Initial residual = 0.00498727, Final residual = 9.73096e-08, No Iterations 148
time step continuity errors : sum local = 1.36788e-12, global = -9.83856e-15, cumulative = -1.53253e-12
DICPCG:  Solving for p, Initial residual = 0.00086116, Final residual = 8.70192e-08, No Iterations 122
time step continuity errors : sum local = 1.22435e-12, global = -3.68835e-14, cumulative = -1.56941e-12
ExecutionTime = 5.26 s  ClockTime = 5 s

Time = 0.62

Courant Number mean: 0.0814479 max: 0.509145
smoothSolver:  Solving for Ux, Initial residual = 0.000612191, Final residual = 1.73135e-08, No Iterations 3
smoothSolver:  Solving for Uy, Initial residual = 0.00238913, Final residual = 2.22509e-08, No Iterations 3
DICPCG:  Solving for p, Initial residual = 0.00493274, Final residual = 9.95985e-08, No Iterations 148
time step continuity errors : sum local = 1.40111e-12, global = -9.24509e-15, cumulative = -1.57865e-12
DICPCG:  Solving for p, Initial residual = 0.000850228, Final residual = 9.03549e-08, No Iterations 122
time step continuity errors : sum local = 1.27218e-12, global = -4.51033e-14, cumulative = -1.62376e-12
ExecutionTime = 5.34 s  ClockTime = 5 s

Time = 0.63

Courant Number mean: 0.0814484 max: 0.508464
smoothSolver:  Solving for Ux, Initial residual = 0.000607479, Final residual = 1.72282e-08, No Iterations 3
smoothSolver:  Solving for Uy, Initial residual = 0.00238044, Final residual = 2.17478e-08, No Iterations 3
DICPCG:  Solving for p, Initial residual = 0.00481051, Final residual = 9.79494e-08, No Iterations 148
time step continuity errors : sum local = 1.37894e-12, global = -9.30314e-15, cumulative = -1.63306e-12
DICPCG:  Solving for p, Initial residual = 0.000832997, Final residual = 9.06201e-08, No Iterations 122
time step continuity errors : sum local = 1.27681e-12, global = -4.96705e-14, cumulative = -1.68273e-12
ExecutionTime = 5.42 s  ClockTime = 5 s

Time = 0.64

Courant Number mean: 0.0814489 max: 0.507762
smoothSolver:  Solving for Ux, Initial residual = 0.000602843, Final residual = 1.71598e-08, No Iterations 3
smoothSolver:  Solving for Uy, Initial residual = 0.00237155, Final residual = 2.12557e-08, No Iterations 3
DICPCG:  Solving for p, Initial residual = 0.00476224, Final residual = 8.82249e-08, No Iterations 149
time step continuity errors : sum local = 1.24307e-12, global = -8.45539e-15, cumulative = -1.69119e-12
DICPCG:  Solving for p, Initial residual = 0.000825194, Final residual = 9.98907e-08, No Iterations 121
time step continuity errors : sum local = 1.40872e-12, global = -5.96056e-14, cumulative = -1.75079e-12
ExecutionTime = 5.49 s  ClockTime = 5 s

Time = 0.65

Courant Number mean: 0.0814493 max: 0.507038
smoothSolver:  Solving for Ux, Initial residual = 0.00059844, Final residual = 1.70968e-08, No Iterations 3
smoothSolver:  Solving for Uy, Initial residual = 0.0023625, Final residual = 2.08021e-08, No Iterations 3
DICPCG:  Solving for p, Initial residual = 0.00470536, Final residual = 8.75251e-08, No Iterations 149
time step continuity errors : sum local = 1.23434e-12, global = -8.66279e-15, cumulative = -1.75945e-12
DICPCG:  Solving for p, Initial residual = 0.000809017, Final residual = 8.9265e-08, No Iterations 122
time step continuity errors : sum local = 1.25997e-12, global = -5.18171e-14, cumulative = -1.81127e-12
ExecutionTime = 5.56 s  ClockTime = 5 s

Time = 0.66

Courant Number mean: 0.0814498 max: 0.506295
smoothSolver:  Solving for Ux, Initial residual = 0.000594224, Final residual = 1.70372e-08, No Iterations 3
smoothSolver:  Solving for Uy, Initial residual = 0.00235369, Final residual = 2.04072e-08, No Iterations 3
DICPCG:  Solving for p, Initial residual = 0.00460653, Final residual = 8.84392e-08, No Iterations 149
time step continuity errors : sum local = 1.24847e-12, global = -8.86594e-15, cumulative = -1.82014e-12
DICPCG:  Solving for p, Initial residual = 0.000784113, Final residual = 9.86046e-08, No Iterations 121
time step continuity errors : sum local = 1.39326e-12, global = -6.07814e-14, cumulative = -1.88092e-12
ExecutionTime = 5.65 s  ClockTime = 6 s

Time = 0.67

Courant Number mean: 0.0814504 max: 0.505533
smoothSolver:  Solving for Ux, Initial residual = 0.000590118, Final residual = 1.698e-08, No Iterations 3
smoothSolver:  Solving for Uy, Initial residual = 0.00234486, Final residual = 2.00162e-08, No Iterations 3
DICPCG:  Solving for p, Initial residual = 0.00462948, Final residual = 8.83176e-08, No Iterations 149
time step continuity errors : sum local = 1.24811e-12, global = -8.72959e-15, cumulative = -1.88965e-12
DICPCG:  Solving for p, Initial residual = 0.000777656, Final residual = 9.58469e-08, No Iterations 121
time step continuity errors : sum local = 1.35579e-12, global = -5.97779e-14, cumulative = -1.94943e-12
ExecutionTime = 5.72 s  ClockTime = 6 s

Time = 0.68

Courant Number mean: 0.0814509 max: 0.504752
smoothSolver:  Solving for Ux, Initial residual = 0.000586098, Final residual = 1.69095e-08, No Iterations 3
smoothSolver:  Solving for Uy, Initial residual = 0.00233607, Final residual = 1.95966e-08, No Iterations 3
DICPCG:  Solving for p, Initial residual = 0.00454842, Final residual = 8.8344e-08, No Iterations 149
time step continuity errors : sum local = 1.24992e-12, global = -8.87012e-15, cumulative = -1.9583e-12
DICPCG:  Solving for p, Initial residual = 0.00076245, Final residual = 9.67229e-08, No Iterations 121
time step continuity errors : sum local = 1.36973e-12, global = -5.89517e-14, cumulative = -2.01725e-12
ExecutionTime = 5.8 s  ClockTime = 6 s

Time = 0.69

Courant Number mean: 0.0814515 max: 0.503954
smoothSolver:  Solving for Ux, Initial residual = 0.00058219, Final residual = 1.6842e-08, No Iterations 3
smoothSolver:  Solving for Uy, Initial residual = 0.00232762, Final residual = 1.91602e-08, No Iterations 3
DICPCG:  Solving for p, Initial residual = 0.00437744, Final residual = 8.88797e-08, No Iterations 149
time step continuity errors : sum local = 1.25907e-12, global = -9.2869e-15, cumulative = -2.02654e-12
DICPCG:  Solving for p, Initial residual = 0.000747386, Final residual = 9.72766e-08, No Iterations 121
time step continuity errors : sum local = 1.37951e-12, global = -6.00062e-14, cumulative = -2.08654e-12
ExecutionTime = 5.87 s  ClockTime = 6 s

Time = 0.7

Courant Number mean: 0.0814521 max: 0.503299
smoothSolver:  Solving for Ux, Initial residual = 0.000578359, Final residual = 1.67743e-08, No Iterations 3
smoothSolver:  Solving for Uy, Initial residual = 0.00231944, Final residual = 1.89499e-08, No Iterations 3
DICPCG:  Solving for p, Initial residual = 0.0043486, Final residual = 8.88628e-08, No Iterations 149
time step continuity errors : sum local = 1.26049e-12, global = -9.06009e-15, cumulative = -2.0956e-12
DICPCG:  Solving for p, Initial residual = 0.00073589, Final residual = 9.36088e-08, No Iterations 121
time step continuity errors : sum local = 1.32906e-12, global = -5.8803e-14, cumulative = -2.1544e-12
ExecutionTime = 5.95 s  ClockTime = 6 s

Time = 0.71

Courant Number mean: 0.0814528 max: 0.502796
smoothSolver:  Solving for Ux, Initial residual = 0.000574563, Final residual = 1.6699e-08, No Iterations 3
smoothSolver:  Solving for Uy, Initial residual = 0.00231159, Final residual = 1.88057e-08, No Iterations 3
DICPCG:  Solving for p, Initial residual = 0.00424404, Final residual = 8.63e-08, No Iterations 149
time step continuity errors : sum local = 1.22568e-12, global = -8.91864e-15, cumulative = -2.16332e-12
DICPCG:  Solving for p, Initial residual = 0.000721142, Final residual = 9.33064e-08, No Iterations 121
time step continuity errors : sum local = 1.32646e-12, global = -5.92073e-14, cumulative = -2.22253e-12
ExecutionTime = 6.03 s  ClockTime = 6 s

Time = 0.72

Courant Number mean: 0.0814534 max: 0.502264
smoothSolver:  Solving for Ux, Initial residual = 0.000570859, Final residual = 1.66235e-08, No Iterations 3
smoothSolver:  Solving for Uy, Initial residual = 0.00230395, Final residual = 1.86451e-08, No Iterations 3
DICPCG:  Solving for p, Initial residual = 0.00422069, Final residual = 8.78399e-08, No Iterations 149
time step continuity errors : sum local = 1.24921e-12, global = -9.12842e-15, cumulative = -2.23166e-12
DICPCG:  Solving for p, Initial residual = 0.000711494, Final residual = 9.07083e-08, No Iterations 121
time step continuity errors : sum local = 1.29131e-12, global = -5.86629e-14, cumulative = -2.29032e-12
ExecutionTime = 6.1 s  ClockTime = 6 s

Time = 0.73

Courant Number mean: 0.0814541 max: 0.501712
smoothSolver:  Solving for Ux, Initial residual = 0.000567259, Final residual = 1.65452e-08, No Iterations 3
smoothSolver:  Solving for Uy, Initial residual = 0.00229708, Final residual = 1.85022e-08, No Iterations 3
DICPCG:  Solving for p, Initial residual = 0.00420672, Final residual = 8.91883e-08, No Iterations 149
time step continuity errors : sum local = 1.27012e-12, global = -9.85508e-15, cumulative = -2.30018e-12
DICPCG:  Solving for p, Initial residual = 0.000709027, Final residual = 9.26977e-08, No Iterations 121
time step continuity errors : sum local = 1.32154e-12, global = -5.80977e-14, cumulative = -2.35827e-12
ExecutionTime = 6.17 s  ClockTime = 6 s

Time = 0.74

Courant Number mean: 0.0814548 max: 0.501142
smoothSolver:  Solving for Ux, Initial residual = 0.000563745, Final residual = 1.64676e-08, No Iterations 3
smoothSolver:  Solving for Uy, Initial residual = 0.0022903, Final residual = 1.84802e-08, No Iterations 3
DICPCG:  Solving for p, Initial residual = 0.00420054, Final residual = 8.60969e-08, No Iterations 149
time step continuity errors : sum local = 1.22785e-12, global = -8.12391e-15, cumulative = -2.3664e-12
DICPCG:  Solving for p, Initial residual = 0.00070014, Final residual = 8.72048e-08, No Iterations 121
time step continuity errors : sum local = 1.24457e-12, global = -5.77565e-14, cumulative = -2.42416e-12
ExecutionTime = 6.26 s  ClockTime = 6 s

Time = 0.75

Courant Number mean: 0.0814555 max: 0.500554
smoothSolver:  Solving for Ux, Initial residual = 0.000560299, Final residual = 1.63824e-08, No Iterations 3
smoothSolver:  Solving for Uy, Initial residual = 0.0022836, Final residual = 1.85476e-08, No Iterations 3
DICPCG:  Solving for p, Initial residual = 0.00407163, Final residual = 8.79728e-08, No Iterations 149
time step continuity errors : sum local = 1.25613e-12, global = -8.24284e-15, cumulative = -2.4324e-12
DICPCG:  Solving for p, Initial residual = 0.000676416, Final residual = 9.34996e-08, No Iterations 120
time step continuity errors : sum local = 1.33627e-12, global = -6.52959e-14, cumulative = -2.49769e-12
ExecutionTime = 6.33 s  ClockTime = 6 s

Time = 0.76

Courant Number mean: 0.0814562 max: 0.49995
smoothSolver:  Solving for Ux, Initial residual = 0.000556892, Final residual = 1.62869e-08, No Iterations 3
smoothSolver:  Solving for Uy, Initial residual = 0.00227751, Final residual = 1.85875e-08, No Iterations 3
DICPCG:  Solving for p, Initial residual = 0.00398509, Final residual = 8.5764e-08, No Iterations 149
time step continuity errors : sum local = 1.22635e-12, global = -8.6018e-15, cumulative = -2.5063e-12
DICPCG:  Solving for p, Initial residual = 0.000665717, Final residual = 9.38485e-08, No Iterations 120
time step continuity errors : sum local = 1.34324e-12, global = -6.68074e-14, cumulative = -2.5731e-12
ExecutionTime = 6.41 s  ClockTime = 6 s

Time = 0.77

Courant Number mean: 0.081457 max: 0.499332
smoothSolver:  Solving for Ux, Initial residual = 0.000553584, Final residual = 1.62149e-08, No Iterations 3
smoothSolver:  Solving for Uy, Initial residual = 0.00227208, Final residual = 1.86679e-08, No Iterations 3
DICPCG:  Solving for p, Initial residual = 0.00395408, Final residual = 8.76452e-08, No Iterations 149
time step continuity errors : sum local = 1.25507e-12, global = -7.96624e-15, cumulative = -2.58107e-12
DICPCG:  Solving for p, Initial residual = 0.000654993, Final residual = 9.84327e-08, No Iterations 119
time step continuity errors : sum local = 1.41082e-12, global = -7.20127e-14, cumulative = -2.65308e-12
ExecutionTime = 6.48 s  ClockTime = 6 s

Time = 0.78

Courant Number mean: 0.0814578 max: 0.498703
smoothSolver:  Solving for Ux, Initial residual = 0.000550357, Final residual = 1.61309e-08, No Iterations 3
smoothSolver:  Solving for Uy, Initial residual = 0.00226675, Final residual = 1.89499e-08, No Iterations 3
DICPCG:  Solving for p, Initial residual = 0.00388389, Final residual = 8.79197e-08, No Iterations 149
time step continuity errors : sum local = 1.26088e-12, global = -7.93244e-15, cumulative = -2.66101e-12
DICPCG:  Solving for p, Initial residual = 0.000646159, Final residual = 9.61065e-08, No Iterations 119
time step continuity errors : sum local = 1.3796e-12, global = -7.06214e-14, cumulative = -2.73164e-12
ExecutionTime = 6.56 s  ClockTime = 6 s

Time = 0.79

Courant Number mean: 0.0814586 max: 0.498063
smoothSolver:  Solving for Ux, Initial residual = 0.000547242, Final residual = 1.60478e-08, No Iterations 3
smoothSolver:  Solving for Uy, Initial residual = 0.00226129, Final residual = 1.95737e-08, No Iterations 3
DICPCG:  Solving for p, Initial residual = 0.0038542, Final residual = 8.70894e-08, No Iterations 149
time step continuity errors : sum local = 1.2509e-12, global = -7.69976e-15, cumulative = -2.73934e-12
DICPCG:  Solving for p, Initial residual = 0.000634717, Final residual = 9.92301e-08, No Iterations 118
time step continuity errors : sum local = 1.42659e-12, global = -7.52666e-14, cumulative = -2.8146e-12
ExecutionTime = 6.63 s  ClockTime = 7 s

Time = 0.8

Courant Number mean: 0.0814594 max: 0.497417
smoothSolver:  Solving for Ux, Initial residual = 0.000544139, Final residual = 1.59613e-08, No Iterations 3
smoothSolver:  Solving for Uy, Initial residual = 0.00225581, Final residual = 2.02738e-08, No Iterations 3
DICPCG:  Solving for p, Initial residual = 0.00395694, Final residual = 8.777e-08, No Iterations 149
time step continuity errors : sum local = 1.26269e-12, global = -8.13992e-15, cumulative = -2.82274e-12
DICPCG:  Solving for p, Initial residual = 0.000631878, Final residual = 9.37789e-08, No Iterations 119
time step continuity errors : sum local = 1.35045e-12, global = -6.90127e-14, cumulative = -2.89175e-12
ExecutionTime = 6.71 s  ClockTime = 7 s

Time = 0.81

Courant Number mean: 0.0814603 max: 0.496765
smoothSolver:  Solving for Ux, Initial residual = 0.000541064, Final residual = 1.58988e-08, No Iterations 3
smoothSolver:  Solving for Uy, Initial residual = 0.00224983, Final residual = 2.09733e-08, No Iterations 3
DICPCG:  Solving for p, Initial residual = 0.00398367, Final residual = 9.93219e-08, No Iterations 148
time step continuity errors : sum local = 1.43112e-12, global = -5.29193e-15, cumulative = -2.89705e-12
DICPCG:  Solving for p, Initial residual = 0.00062291, Final residual = 9.62284e-08, No Iterations 115
time step continuity errors : sum local = 1.38771e-12, global = -4.50948e-14, cumulative = -2.94214e-12
ExecutionTime = 6.79 s  ClockTime = 7 s

Time = 0.82

Courant Number mean: 0.0814612 max: 0.496111
smoothSolver:  Solving for Ux, Initial residual = 0.000538024, Final residual = 1.57711e-08, No Iterations 3
smoothSolver:  Solving for Uy, Initial residual = 0.00224433, Final residual = 2.17408e-08, No Iterations 3
DICPCG:  Solving for p, Initial residual = 0.00394707, Final residual = 9.84038e-08, No Iterations 148
time step continuity errors : sum local = 1.41998e-12, global = -9.00364e-15, cumulative = -2.95115e-12
DICPCG:  Solving for p, Initial residual = 0.000629909, Final residual = 9.7183e-08, No Iterations 118
time step continuity errors : sum local = 1.40393e-12, global = -7.20781e-14, cumulative = -3.02322e-12
ExecutionTime = 6.86 s  ClockTime = 7 s

Time = 0.83

Courant Number mean: 0.0814622 max: 0.495454
smoothSolver:  Solving for Ux, Initial residual = 0.000535049, Final residual = 1.56657e-08, No Iterations 3
smoothSolver:  Solving for Uy, Initial residual = 0.00223886, Final residual = 2.24599e-08, No Iterations 3
DICPCG:  Solving for p, Initial residual = 0.00378647, Final residual = 9.55186e-08, No Iterations 148
time step continuity errors : sum local = 1.3808e-12, global = -8.99715e-15, cumulative = -3.03222e-12
DICPCG:  Solving for p, Initial residual = 0.000618306, Final residual = 9.05819e-08, No Iterations 118
time step continuity errors : sum local = 1.311e-12, global = -6.73505e-14, cumulative = -3.09957e-12
ExecutionTime = 6.93 s  ClockTime = 7 s

Time = 0.84

Courant Number mean: 0.0814632 max: 0.494797
smoothSolver:  Solving for Ux, Initial residual = 0.000532123, Final residual = 1.5561e-08, No Iterations 3
smoothSolver:  Solving for Uy, Initial residual = 0.00223369, Final residual = 2.31963e-08, No Iterations 3
DICPCG:  Solving for p, Initial residual = 0.00366743, Final residual = 9.46731e-08, No Iterations 148
time step continuity errors : sum local = 1.37125e-12, global = -6.38747e-15, cumulative = -3.10596e-12
DICPCG:  Solving for p, Initial residual = 0.000585342, Final residual = 9.69911e-08, No Iterations 116
time step continuity errors : sum local = 1.40624e-12, global = -6.37451e-14, cumulative = -3.1697e-12
ExecutionTime = 7.02 s  ClockTime = 7 s

Time = 0.85

Courant Number mean: 0.0814642 max: 0.494141
smoothSolver:  Solving for Ux, Initial residual = 0.000529161, Final residual = 1.54676e-08, No Iterations 3
smoothSolver:  Solving for Uy, Initial residual = 0.00222918, Final residual = 2.39372e-08, No Iterations 3
DICPCG:  Solving for p, Initial residual = 0.0036764, Final residual = 9.46988e-08, No Iterations 148
time step continuity errors : sum local = 1.37391e-12, global = -6.41033e-15, cumulative = -3.17611e-12
DICPCG:  Solving for p, Initial residual = 0.000580851, Final residual = 9.17652e-08, No Iterations 114
time step continuity errors : sum local = 1.33243e-12, global = -1.00483e-14, cumulative = -3.18616e-12
ExecutionTime = 7.09 s  ClockTime = 7 s

Time = 0.86

Courant Number mean: 0.0814652 max: 0.493489
smoothSolver:  Solving for Ux, Initial residual = 0.000526247, Final residual = 1.5333e-08, No Iterations 3
smoothSolver:  Solving for Uy, Initial residual = 0.00222512, Final residual = 2.46781e-08, No Iterations 3
DICPCG:  Solving for p, Initial residual = 0.00358121, Final residual = 9.71252e-08, No Iterations 148
time step continuity errors : sum local = 1.41122e-12, global = -6.15332e-15, cumulative = -3.19232e-12
DICPCG:  Solving for p, Initial residual = 0.000575969, Final residual = 9.37288e-08, No Iterations 114
time step continuity errors : sum local = 1.36298e-12, global = -1.62109e-14, cumulative = -3.20853e-12
ExecutionTime = 7.17 s  ClockTime = 7 s

Time = 0.87

Courant Number mean: 0.0814662 max: 0.492842
smoothSolver:  Solving for Ux, Initial residual = 0.000523335, Final residual = 1.52157e-08, No Iterations 3
smoothSolver:  Solving for Uy, Initial residual = 0.00222102, Final residual = 2.53863e-08, No Iterations 3
DICPCG:  Solving for p, Initial residual = 0.0035126, Final residual = 9.44491e-08, No Iterations 148
time step continuity errors : sum local = 1.37452e-12, global = -6.69902e-15, cumulative = -3.21523e-12
DICPCG:  Solving for p, Initial residual = 0.000562471, Final residual = 8.57252e-08, No Iterations 114
time step continuity errors : sum local = 1.24871e-12, global = -8.82398e-15, cumulative = -3.22405e-12
ExecutionTime = 7.23 s  ClockTime = 7 s

Time = 0.88

Courant Number mean: 0.0814673 max: 0.4922
smoothSolver:  Solving for Ux, Initial residual = 0.000520466, Final residual = 1.50912e-08, No Iterations 3
smoothSolver:  Solving for Uy, Initial residual = 0.00221701, Final residual = 2.60744e-08, No Iterations 3
DICPCG:  Solving for p, Initial residual = 0.00344556, Final residual = 9.46525e-08, No Iterations 148
time step continuity errors : sum local = 1.37986e-12, global = -6.95098e-15, cumulative = -3.231e-12
DICPCG:  Solving for p, Initial residual = 0.000554245, Final residual = 8.21486e-08, No Iterations 114
time step continuity errors : sum local = 1.19869e-12, global = -4.44803e-15, cumulative = -3.23545e-12
ExecutionTime = 7.31 s  ClockTime = 7 s

Time = 0.89

Courant Number mean: 0.0814684 max: 0.491566
smoothSolver:  Solving for Ux, Initial residual = 0.000517637, Final residual = 1.49647e-08, No Iterations 3
smoothSolver:  Solving for Uy, Initial residual = 0.00221271, Final residual = 2.67231e-08, No Iterations 3
DICPCG:  Solving for p, Initial residual = 0.00346946, Final residual = 9.28409e-08, No Iterations 148
time step continuity errors : sum local = 1.35586e-12, global = -6.36332e-15, cumulative = -3.24181e-12
DICPCG:  Solving for p, Initial residual = 0.00055207, Final residual = 9.58774e-08, No Iterations 113
time step continuity errors : sum local = 1.40153e-12, global = 1.72602e-14, cumulative = -3.22455e-12
ExecutionTime = 7.38 s  ClockTime = 7 s

Time = 0.9

Courant Number mean: 0.0814696 max: 0.49094
smoothSolver:  Solving for Ux, Initial residual = 0.000514835, Final residual = 1.48339e-08, No Iterations 3
smoothSolver:  Solving for Uy, Initial residual = 0.00220811, Final residual = 2.73408e-08, No Iterations 3
DICPCG:  Solving for p, Initial residual = 0.00337362, Final residual = 9.98993e-08, No Iterations 147
time step continuity errors : sum local = 1.46154e-12, global = -7.22151e-15, cumulative = -3.23177e-12
DICPCG:  Solving for p, Initial residual = 0.000535129, Final residual = 8.86652e-08, No Iterations 113
time step continuity errors : sum local = 1.29831e-12, global = 3.61049e-14, cumulative = -3.19567e-12
ExecutionTime = 7.46 s  ClockTime = 7 s

Time = 0.91

Courant Number mean: 0.0814708 max: 0.490323
smoothSolver:  Solving for Ux, Initial residual = 0.000512086, Final residual = 1.46887e-08, No Iterations 3
smoothSolver:  Solving for Uy, Initial residual = 0.00220343, Final residual = 2.79407e-08, No Iterations 3
DICPCG:  Solving for p, Initial residual = 0.00334194, Final residual = 9.06599e-08, No Iterations 148
time step continuity errors : sum local = 1.32872e-12, global = -6.45861e-15, cumulative = -3.20213e-12
DICPCG:  Solving for p, Initial residual = 0.000532028, Final residual = 8.88855e-08, No Iterations 113
time step continuity errors : sum local = 1.30394e-12, global = 3.41921e-14, cumulative = -3.16793e-12
ExecutionTime = 7.54 s  ClockTime = 7 s

Time = 0.92

Courant Number mean: 0.081472 max: 0.489715
smoothSolver:  Solving for Ux, Initial residual = 0.000509357, Final residual = 1.45471e-08, No Iterations 3
smoothSolver:  Solving for Uy, Initial residual = 0.00219832, Final residual = 2.85394e-08, No Iterations 3
DICPCG:  Solving for p, Initial residual = 0.00332052, Final residual = 9.0527e-08, No Iterations 148
time step continuity errors : sum local = 1.32922e-12, global = -6.97692e-15, cumulative = -3.17491e-12
DICPCG:  Solving for p, Initial residual = 0.000526275, Final residual = 8.76711e-08, No Iterations 113
time step continuity errors : sum local = 1.28856e-12, global = 3.07021e-14, cumulative = -3.14421e-12
ExecutionTime = 7.61 s  ClockTime = 8 s

Time = 0.93

Courant Number mean: 0.0814732 max: 0.489118
smoothSolver:  Solving for Ux, Initial residual = 0.000506636, Final residual = 1.44097e-08, No Iterations 3
smoothSolver:  Solving for Uy, Initial residual = 0.00219295, Final residual = 2.91587e-08, No Iterations 3
DICPCG:  Solving for p, Initial residual = 0.00322369, Final residual = 9.6918e-08, No Iterations 147
time step continuity errors : sum local = 1.42569e-12, global = -6.31393e-15, cumulative = -3.15052e-12
DICPCG:  Solving for p, Initial residual = 0.000508032, Final residual = 9.45e-08, No Iterations 99
time step continuity errors : sum local = 1.39136e-12, global = -2.625e-15, cumulative = -3.15315e-12
ExecutionTime = 7.68 s  ClockTime = 8 s

Time = 0.94

Courant Number mean: 0.0814745 max: 0.488531
smoothSolver:  Solving for Ux, Initial residual = 0.000503938, Final residual = 1.42679e-08, No Iterations 3
smoothSolver:  Solving for Uy, Initial residual = 0.00218769, Final residual = 2.97752e-08, No Iterations 3
DICPCG:  Solving for p, Initial residual = 0.00321579, Final residual = 9.61606e-08, No Iterations 147
time step continuity errors : sum local = 1.41701e-12, global = -6.31926e-15, cumulative = -3.15947e-12
DICPCG:  Solving for p, Initial residual = 0.00050262, Final residual = 9.65229e-08, No Iterations 99
time step continuity errors : sum local = 1.42355e-12, global = -1.90611e-15, cumulative = -3.16137e-12
ExecutionTime = 7.75 s  ClockTime = 8 s

Time = 0.95

Courant Number mean: 0.0814757 max: 0.487955
smoothSolver:  Solving for Ux, Initial residual = 0.000501267, Final residual = 1.41234e-08, No Iterations 3
smoothSolver:  Solving for Uy, Initial residual = 0.00218232, Final residual = 3.03463e-08, No Iterations 3
DICPCG:  Solving for p, Initial residual = 0.00322034, Final residual = 9.89782e-08, No Iterations 147
time step continuity errors : sum local = 1.46118e-12, global = -5.79408e-15, cumulative = -3.16717e-12
DICPCG:  Solving for p, Initial residual = 0.000504497, Final residual = 9.91063e-08, No Iterations 98
time step continuity errors : sum local = 1.46453e-12, global = -2.84951e-14, cumulative = -3.19566e-12
ExecutionTime = 7.83 s  ClockTime = 8 s

Time = 0.96

Courant Number mean: 0.081477 max: 0.48739
smoothSolver:  Solving for Ux, Initial residual = 0.000498618, Final residual = 1.39739e-08, No Iterations 3
smoothSolver:  Solving for Uy, Initial residual = 0.0021768, Final residual = 3.08833e-08, No Iterations 3
DICPCG:  Solving for p, Initial residual = 0.00325348, Final residual = 9.54781e-08, No Iterations 147
time step continuity errors : sum local = 1.41207e-12, global = -4.75743e-15, cumulative = -3.20042e-12
DICPCG:  Solving for p, Initial residual = 0.000496297, Final residual = 8.14876e-08, No Iterations 114
time step continuity errors : sum local = 1.20611e-12, global = 4.65209e-14, cumulative = -3.1539e-12
ExecutionTime = 7.9 s  ClockTime = 8 s

Time = 0.97

Courant Number mean: 0.0814783 max: 0.486837
smoothSolver:  Solving for Ux, Initial residual = 0.000495933, Final residual = 1.38273e-08, No Iterations 3
smoothSolver:  Solving for Uy, Initial residual = 0.00217117, Final residual = 3.13629e-08, No Iterations 3
DICPCG:  Solving for p, Initial residual = 0.00315506, Final residual = 9.22864e-08, No Iterations 147
time step continuity errors : sum local = 1.36719e-12, global = -3.3809e-15, cumulative = -3.15728e-12
DICPCG:  Solving for p, Initial residual = 0.000480688, Final residual = 9.67719e-08, No Iterations 115
time step continuity errors : sum local = 1.43477e-12, global = 3.78851e-14, cumulative = -3.1194e-12
ExecutionTime = 7.97 s  ClockTime = 8 s

Time = 0.98

Courant Number mean: 0.0814797 max: 0.486296
smoothSolver:  Solving for Ux, Initial residual = 0.000493326, Final residual = 1.36572e-08, No Iterations 3
smoothSolver:  Solving for Uy, Initial residual = 0.00216603, Final residual = 3.18384e-08, No Iterations 3
DICPCG:  Solving for p, Initial residual = 0.00296114, Final residual = 9.19515e-08, No Iterations 147
time step continuity errors : sum local = 1.36458e-12, global = -4.25334e-15, cumulative = -3.12365e-12
DICPCG:  Solving for p, Initial residual = 0.000468863, Final residual = 9.14805e-08, No Iterations 114
time step continuity errors : sum local = 1.35877e-12, global = 4.9638e-14, cumulative = -3.07401e-12
ExecutionTime = 8.04 s  ClockTime = 8 s

Time = 0.99

Courant Number mean: 0.0814811 max: 0.485766
smoothSolver:  Solving for Ux, Initial residual = 0.000490747, Final residual = 1.34923e-08, No Iterations 3
smoothSolver:  Solving for Uy, Initial residual = 0.00216067, Final residual = 3.22606e-08, No Iterations 3
DICPCG:  Solving for p, Initial residual = 0.00297059, Final residual = 9.41225e-08, No Iterations 147
time step continuity errors : sum local = 1.39924e-12, global = -4.11233e-15, cumulative = -3.07812e-12
DICPCG:  Solving for p, Initial residual = 0.000463098, Final residual = 9.49353e-08, No Iterations 115
time step continuity errors : sum local = 1.41244e-12, global = 3.50966e-14, cumulative = -3.04303e-12
ExecutionTime = 8.13 s  ClockTime = 8 s

Time = 1

Courant Number mean: 0.0814825 max: 0.485248
smoothSolver:  Solving for Ux, Initial residual = 0.000488208, Final residual = 1.33226e-08, No Iterations 3
smoothSolver:  Solving for Uy, Initial residual = 0.00215523, Final residual = 3.26589e-08, No Iterations 3
DICPCG:  Solving for p, Initial residual = 0.00294089, Final residual = 9.09421e-08, No Iterations 147
time step continuity errors : sum local = 1.35424e-12, global = -4.2526e-15, cumulative = -3.04728e-12
DICPCG:  Solving for p, Initial residual = 0.000458113, Final residual = 9.22452e-08, No Iterations 115
time step continuity errors : sum local = 1.37476e-12, global = 3.4271e-14, cumulative = -3.01301e-12
ExecutionTime = 8.2 s  ClockTime = 8 s

Time = 1.01

Courant Number mean: 0.0814839 max: 0.484742
smoothSolver:  Solving for Ux, Initial residual = 0.00048568, Final residual = 1.31504e-08, No Iterations 3
smoothSolver:  Solving for Uy, Initial residual = 0.00214957, Final residual = 3.30171e-08, No Iterations 3
DICPCG:  Solving for p, Initial residual = 0.00297664, Final residual = 9.09581e-08, No Iterations 147
time step continuity errors : sum local = 1.35681e-12, global = -4.11457e-15, cumulative = -3.01712e-12
DICPCG:  Solving for p, Initial residual = 0.000453918, Final residual = 9.87313e-08, No Iterations 115
time step continuity errors : sum local = 1.47396e-12, global = 3.15184e-14, cumulative = -2.9856e-12
ExecutionTime = 8.27 s  ClockTime = 8 s

Time = 1.02

Courant Number mean: 0.0814853 max: 0.484261
smoothSolver:  Solving for Ux, Initial residual = 0.000483179, Final residual = 1.29728e-08, No Iterations 3
smoothSolver:  Solving for Uy, Initial residual = 0.00214404, Final residual = 3.33386e-08, No Iterations 3
DICPCG:  Solving for p, Initial residual = 0.0029785, Final residual = 9.10394e-08, No Iterations 147
time step continuity errors : sum local = 1.36035e-12, global = -4.74231e-15, cumulative = -2.99035e-12
DICPCG:  Solving for p, Initial residual = 0.000452319, Final residual = 8.74823e-08, No Iterations 117
time step continuity errors : sum local = 1.30818e-12, global = 6.06064e-15, cumulative = -2.98429e-12
ExecutionTime = 8.35 s  ClockTime = 8 s

Time = 1.03

Courant Number mean: 0.0814867 max: 0.483905
smoothSolver:  Solving for Ux, Initial residual = 0.000480723, Final residual = 1.27928e-08, No Iterations 3
smoothSolver:  Solving for Uy, Initial residual = 0.00213863, Final residual = 3.36425e-08, No Iterations 3
DICPCG:  Solving for p, Initial residual = 0.00293616, Final residual = 9.17888e-08, No Iterations 147
time step continuity errors : sum local = 1.3738e-12, global = -4.35553e-15, cumulative = -2.98864e-12
DICPCG:  Solving for p, Initial residual = 0.000449215, Final residual = 9.00831e-08, No Iterations 117
time step continuity errors : sum local = 1.34913e-12, global = 2.50718e-15, cumulative = -2.98613e-12
ExecutionTime = 8.42 s  ClockTime = 8 s

Time = 1.04

Courant Number mean: 0.0814882 max: 0.48356
smoothSolver:  Solving for Ux, Initial residual = 0.000478228, Final residual = 1.26087e-08, No Iterations 3
smoothSolver:  Solving for Uy, Initial residual = 0.00213301, Final residual = 3.39236e-08, No Iterations 3
DICPCG:  Solving for p, Initial residual = 0.00299246, Final residual = 8.99288e-08, No Iterations 147
time step continuity errors : sum local = 1.34804e-12, global = -7.82718e-15, cumulative = -2.99396e-12
DICPCG:  Solving for p, Initial residual = 0.000453919, Final residual = 9.71603e-08, No Iterations 116
time step continuity errors : sum local = 1.45792e-12, global = 1.81003e-14, cumulative = -2.97586e-12
ExecutionTime = 8.5 s  ClockTime = 8 s

Time = 1.05

Courant Number mean: 0.0814896 max: 0.483225
smoothSolver:  Solving for Ux, Initial residual = 0.000475919, Final residual = 1.24207e-08, No Iterations 3
smoothSolver:  Solving for Uy, Initial residual = 0.00212698, Final residual = 3.41612e-08, No Iterations 3
DICPCG:  Solving for p, Initial residual = 0.0029736, Final residual = 8.89768e-08, No Iterations 147
time step continuity errors : sum local = 1.3363e-12, global = -8.14391e-15, cumulative = -2.984e-12
DICPCG:  Solving for p, Initial residual = 0.000445277, Final residual = 9.53975e-08, No Iterations 116
time step continuity errors : sum local = 1.43418e-12, global = 1.83999e-14, cumulative = -2.9656e-12
ExecutionTime = 8.57 s  ClockTime = 8 s

Time = 1.06

Courant Number mean: 0.0814911 max: 0.482898
smoothSolver:  Solving for Ux, Initial residual = 0.000473668, Final residual = 1.22288e-08, No Iterations 3
smoothSolver:  Solving for Uy, Initial residual = 0.00212082, Final residual = 3.43768e-08, No Iterations 3
DICPCG:  Solving for p, Initial residual = 0.0027962, Final residual = 8.49647e-08, No Iterations 147
time step continuity errors : sum local = 1.27848e-12, global = -6.00872e-15, cumulative = -2.97161e-12
DICPCG:  Solving for p, Initial residual = 0.000420782, Final residual = 9.19583e-08, No Iterations 117
time step continuity errors : sum local = 1.38484e-12, global = 4.18625e-16, cumulative = -2.9712e-12
ExecutionTime = 8.65 s  ClockTime = 9 s

Time = 1.07

Courant Number mean: 0.0814926 max: 0.48258
smoothSolver:  Solving for Ux, Initial residual = 0.000471351, Final residual = 1.2035e-08, No Iterations 3
smoothSolver:  Solving for Uy, Initial residual = 0.0021149, Final residual = 3.45743e-08, No Iterations 3
DICPCG:  Solving for p, Initial residual = 0.00270756, Final residual = 8.28192e-08, No Iterations 147
time step continuity errors : sum local = 1.24837e-12, global = -5.17619e-15, cumulative = -2.97637e-12
DICPCG:  Solving for p, Initial residual = 0.000409729, Final residual = 9.72119e-08, No Iterations 117
time step continuity errors : sum local = 1.4664e-12, global = -2.69849e-15, cumulative = -2.97907e-12
ExecutionTime = 8.72 s  ClockTime = 9 s

Time = 1.08

Courant Number mean: 0.0814942 max: 0.482272
smoothSolver:  Solving for Ux, Initial residual = 0.00046901, Final residual = 1.18344e-08, No Iterations 3
smoothSolver:  Solving for Uy, Initial residual = 0.00210977, Final residual = 3.47602e-08, No Iterations 3
DICPCG:  Solving for p, Initial residual = 0.00268973, Final residual = 8.71705e-08, No Iterations 147
time step continuity errors : sum local = 1.31608e-12, global = -7.15774e-15, cumulative = -2.98623e-12
DICPCG:  Solving for p, Initial residual = 0.000404621, Final residual = 9.60819e-08, No Iterations 117
time step continuity errors : sum local = 1.45156e-12, global = -5.30239e-15, cumulative = -2.99153e-12
ExecutionTime = 8.8 s  ClockTime = 9 s

Time = 1.09

Courant Number mean: 0.0814957 max: 0.481972
[...]
ExecutionTime = 210.51 s  ClockTime = 211 s

Time = 39.74

Courant Number mean: 0.0818573 max: 0.408701
smoothSolver:  Solving for Ux, Initial residual = 4.87876e-06, Final residual = 1.34183e-08, No Iterations 1
smoothSolver:  Solving for Uy, Initial residual = 3.91606e-05, Final residual = 1.78761e-09, No Iterations 2
DICPCG:  Solving for p, Initial residual = 7.48564e-06, Final residual = 9.04271e-08, No Iterations 82
time step continuity errors : sum local = 1.07356e-12, global = -6.79463e-14, cumulative = -1.75903e-10
DICPCG:  Solving for p, Initial residual = 1.48274e-06, Final residual = 9.42079e-08, No Iterations 24
time step continuity errors : sum local = 1.11839e-12, global = -1.49059e-13, cumulative = -1.76052e-10
ExecutionTime = 210.54 s  ClockTime = 211 s

Time = 39.75

Courant Number mean: 0.0818573 max: 0.4087
smoothSolver:  Solving for Ux, Initial residual = 4.87555e-06, Final residual = 1.34099e-08, No Iterations 1
smoothSolver:  Solving for Uy, Initial residual = 3.91298e-05, Final residual = 1.78639e-09, No Iterations 2
DICPCG:  Solving for p, Initial residual = 7.66546e-06, Final residual = 9.00129e-08, No Iterations 82
time step continuity errors : sum local = 1.06858e-12, global = -6.75174e-14, cumulative = -1.76119e-10
DICPCG:  Solving for p, Initial residual = 1.49312e-06, Final residual = 9.57786e-08, No Iterations 24
time step continuity errors : sum local = 1.13697e-12, global = -1.48965e-13, cumulative = -1.76268e-10
ExecutionTime = 210.58 s  ClockTime = 211 s

Time = 39.76

Courant Number mean: 0.0818573 max: 0.408699
smoothSolver:  Solving for Ux, Initial residual = 4.87235e-06, Final residual = 1.34014e-08, No Iterations 1
smoothSolver:  Solving for Uy, Initial residual = 3.90986e-05, Final residual = 1.78516e-09, No Iterations 2
DICPCG:  Solving for p, Initial residual = 7.49681e-06, Final residual = 8.94846e-08, No Iterations 82
time step continuity errors : sum local = 1.06225e-12, global = -6.63057e-14, cumulative = -1.76334e-10
DICPCG:  Solving for p, Initial residual = 1.47778e-06, Final residual = 9.36667e-08, No Iterations 24
time step continuity errors : sum local = 1.11184e-12, global = -1.48858e-13, cumulative = -1.76483e-10
ExecutionTime = 210.62 s  ClockTime = 211 s

Time = 39.77

Courant Number mean: 0.0818573 max: 0.408698
smoothSolver:  Solving for Ux, Initial residual = 4.86915e-06, Final residual = 1.3393e-08, No Iterations 1
smoothSolver:  Solving for Uy, Initial residual = 3.90676e-05, Final residual = 1.78396e-09, No Iterations 2
DICPCG:  Solving for p, Initial residual = 7.55392e-06, Final residual = 9.12147e-08, No Iterations 82
time step continuity errors : sum local = 1.08273e-12, global = -6.6923e-14, cumulative = -1.7655e-10
DICPCG:  Solving for p, Initial residual = 1.48175e-06, Final residual = 9.37783e-08, No Iterations 24
time step continuity errors : sum local = 1.1131e-12, global = -1.48715e-13, cumulative = -1.76699e-10
ExecutionTime = 210.66 s  ClockTime = 211 s

Time = 39.78

Courant Number mean: 0.0818573 max: 0.408697
smoothSolver:  Solving for Ux, Initial residual = 4.86597e-06, Final residual = 1.33847e-08, No Iterations 1
smoothSolver:  Solving for Uy, Initial residual = 3.90371e-05, Final residual = 1.78276e-09, No Iterations 2
DICPCG:  Solving for p, Initial residual = 8.00694e-06, Final residual = 9.19603e-08, No Iterations 82
time step continuity errors : sum local = 1.09152e-12, global = -6.85103e-14, cumulative = -1.76767e-10
DICPCG:  Solving for p, Initial residual = 1.51098e-06, Final residual = 9.65816e-08, No Iterations 24
time step continuity errors : sum local = 1.1463e-12, global = -1.48397e-13, cumulative = -1.76916e-10
ExecutionTime = 210.7 s  ClockTime = 211 s

Time = 39.79

Courant Number mean: 0.0818572 max: 0.408696
smoothSolver:  Solving for Ux, Initial residual = 4.86279e-06, Final residual = 1.33765e-08, No Iterations 1
smoothSolver:  Solving for Uy, Initial residual = 3.90073e-05, Final residual = 1.7816e-09, No Iterations 2
DICPCG:  Solving for p, Initial residual = 8.82997e-06, Final residual = 9.25651e-08, No Iterations 82
time step continuity errors : sum local = 1.09863e-12, global = -7.17896e-14, cumulative = -1.76988e-10
DICPCG:  Solving for p, Initial residual = 1.56781e-06, Final residual = 9.91816e-08, No Iterations 24
time step continuity errors : sum local = 1.17709e-12, global = -1.50189e-13, cumulative = -1.77138e-10
ExecutionTime = 210.74 s  ClockTime = 211 s

Time = 39.8

Courant Number mean: 0.0818572 max: 0.408695
smoothSolver:  Solving for Ux, Initial residual = 4.85961e-06, Final residual = 1.3368e-08, No Iterations 1
smoothSolver:  Solving for Uy, Initial residual = 3.89755e-05, Final residual = 1.78033e-09, No Iterations 2
DICPCG:  Solving for p, Initial residual = 7.83132e-06, Final residual = 9.84525e-08, No Iterations 81
time step continuity errors : sum local = 1.16844e-12, global = -7.69269e-14, cumulative = -1.77215e-10
DICPCG:  Solving for p, Initial residual = 1.5024e-06, Final residual = 9.59638e-08, No Iterations 24
time step continuity errors : sum local = 1.13884e-12, global = -1.49763e-13, cumulative = -1.77364e-10
ExecutionTime = 210.78 s  ClockTime = 211 s

Time = 39.81

Courant Number mean: 0.0818572 max: 0.408694
smoothSolver:  Solving for Ux, Initial residual = 4.85642e-06, Final residual = 1.33596e-08, No Iterations 1
smoothSolver:  Solving for Uy, Initial residual = 3.89447e-05, Final residual = 1.77911e-09, No Iterations 2
DICPCG:  Solving for p, Initial residual = 8.33012e-06, Final residual = 8.95773e-08, No Iterations 81
time step continuity errors : sum local = 1.06304e-12, global = -7.8529e-14, cumulative = -1.77443e-10
DICPCG:  Solving for p, Initial residual = 1.53621e-06, Final residual = 9.64137e-08, No Iterations 24
time step continuity errors : sum local = 1.14411e-12, global = -1.50296e-13, cumulative = -1.77593e-10
ExecutionTime = 210.81 s  ClockTime = 211 s

Time = 39.82

Courant Number mean: 0.0818572 max: 0.408693
smoothSolver:  Solving for Ux, Initial residual = 4.85315e-06, Final residual = 1.33505e-08, No Iterations 1
smoothSolver:  Solving for Uy, Initial residual = 3.89115e-05, Final residual = 1.77774e-09, No Iterations 2
DICPCG:  Solving for p, Initial residual = 9.24112e-06, Final residual = 9.49706e-08, No Iterations 81
time step continuity errors : sum local = 1.12699e-12, global = -7.63139e-14, cumulative = -1.7767e-10
DICPCG:  Solving for p, Initial residual = 1.61034e-06, Final residual = 9.76023e-08, No Iterations 24
time step continuity errors : sum local = 1.15815e-12, global = -1.51175e-13, cumulative = -1.77821e-10
ExecutionTime = 210.86 s  ClockTime = 211 s

Time = 39.83

Courant Number mean: 0.0818572 max: 0.408691
smoothSolver:  Solving for Ux, Initial residual = 4.84978e-06, Final residual = 1.33404e-08, No Iterations 1
smoothSolver:  Solving for Uy, Initial residual = 3.88757e-05, Final residual = 1.77614e-09, No Iterations 2
DICPCG:  Solving for p, Initial residual = 8.34359e-06, Final residual = 8.71556e-08, No Iterations 81
time step continuity errors : sum local = 1.03419e-12, global = -7.84629e-14, cumulative = -1.77899e-10
DICPCG:  Solving for p, Initial residual = 1.53715e-06, Final residual = 9.61639e-08, No Iterations 24
time step continuity errors : sum local = 1.14102e-12, global = -1.50243e-13, cumulative = -1.78049e-10
ExecutionTime = 210.9 s  ClockTime = 211 s

Time = 39.84

Courant Number mean: 0.0818572 max: 0.40869
smoothSolver:  Solving for Ux, Initial residual = 4.84651e-06, Final residual = 1.33312e-08, No Iterations 1
smoothSolver:  Solving for Uy, Initial residual = 3.88428e-05, Final residual = 1.77473e-09, No Iterations 2
DICPCG:  Solving for p, Initial residual = 7.90616e-06, Final residual = 9.99735e-08, No Iterations 81
time step continuity errors : sum local = 1.18622e-12, global = -7.43058e-14, cumulative = -1.78124e-10
DICPCG:  Solving for p, Initial residual = 1.50451e-06, Final residual = 9.69118e-08, No Iterations 24
time step continuity errors : sum local = 1.14983e-12, global = -1.49272e-13, cumulative = -1.78273e-10
ExecutionTime = 210.94 s  ClockTime = 211 s

Time = 39.85

Courant Number mean: 0.0818572 max: 0.408689
smoothSolver:  Solving for Ux, Initial residual = 4.84333e-06, Final residual = 1.33227e-08, No Iterations 1
smoothSolver:  Solving for Uy, Initial residual = 3.88122e-05, Final residual = 1.7735e-09, No Iterations 2
DICPCG:  Solving for p, Initial residual = 8.43642e-06, Final residual = 9.21822e-08, No Iterations 82
time step continuity errors : sum local = 1.09371e-12, global = -7.25106e-14, cumulative = -1.78346e-10
DICPCG:  Solving for p, Initial residual = 1.53497e-06, Final residual = 9.76909e-08, No Iterations 24
time step continuity errors : sum local = 1.15901e-12, global = -1.49224e-13, cumulative = -1.78495e-10
ExecutionTime = 210.97 s  ClockTime = 211 s

Time = 39.86

Courant Number mean: 0.0818572 max: 0.408688
smoothSolver:  Solving for Ux, Initial residual = 4.84016e-06, Final residual = 1.33143e-08, No Iterations 1
smoothSolver:  Solving for Uy, Initial residual = 3.87805e-05, Final residual = 1.77223e-09, No Iterations 2
DICPCG:  Solving for p, Initial residual = 7.45743e-06, Final residual = 9.72824e-08, No Iterations 81
time step continuity errors : sum local = 1.15416e-12, global = -7.44223e-14, cumulative = -1.78569e-10
DICPCG:  Solving for p, Initial residual = 1.47025e-06, Final residual = 9.36796e-08, No Iterations 24
time step continuity errors : sum local = 1.11135e-12, global = -1.49044e-13, cumulative = -1.78718e-10
ExecutionTime = 211.01 s  ClockTime = 211 s

Time = 39.87

Courant Number mean: 0.0818572 max: 0.408687
smoothSolver:  Solving for Ux, Initial residual = 4.83701e-06, Final residual = 1.3306e-08, No Iterations 1
smoothSolver:  Solving for Uy, Initial residual = 3.87502e-05, Final residual = 1.77104e-09, No Iterations 2
DICPCG:  Solving for p, Initial residual = 7.52121e-06, Final residual = 9.19243e-08, No Iterations 82
time step continuity errors : sum local = 1.09053e-12, global = -6.62114e-14, cumulative = -1.78784e-10
DICPCG:  Solving for p, Initial residual = 1.47075e-06, Final residual = 9.42904e-08, No Iterations 24
time step continuity errors : sum local = 1.11854e-12, global = -1.4785e-13, cumulative = -1.78932e-10
ExecutionTime = 211.05 s  ClockTime = 211 s

Time = 39.88

Courant Number mean: 0.0818571 max: 0.408686
smoothSolver:  Solving for Ux, Initial residual = 4.83385e-06, Final residual = 1.32977e-08, No Iterations 1
smoothSolver:  Solving for Uy, Initial residual = 3.872e-05, Final residual = 1.76984e-09, No Iterations 2
DICPCG:  Solving for p, Initial residual = 7.62781e-06, Final residual = 9.26485e-08, No Iterations 82
time step continuity errors : sum local = 1.09905e-12, global = -6.58668e-14, cumulative = -1.78998e-10
DICPCG:  Solving for p, Initial residual = 1.47836e-06, Final residual = 9.48291e-08, No Iterations 24
time step continuity errors : sum local = 1.12486e-12, global = -1.48021e-13, cumulative = -1.79146e-10
ExecutionTime = 211.09 s  ClockTime = 211 s

Time = 39.89

Courant Number mean: 0.0818571 max: 0.408685
smoothSolver:  Solving for Ux, Initial residual = 4.8307e-06, Final residual = 1.32894e-08, No Iterations 1
smoothSolver:  Solving for Uy, Initial residual = 3.86894e-05, Final residual = 1.76863e-09, No Iterations 2
DICPCG:  Solving for p, Initial residual = 7.52336e-06, Final residual = 9.15275e-08, No Iterations 82
time step continuity errors : sum local = 1.08569e-12, global = -6.55042e-14, cumulative = -1.79212e-10
DICPCG:  Solving for p, Initial residual = 1.47092e-06, Final residual = 9.39047e-08, No Iterations 24
time step continuity errors : sum local = 1.11383e-12, global = -1.47704e-13, cumulative = -1.79359e-10
ExecutionTime = 211.13 s  ClockTime = 211 s

Time = 39.9

Courant Number mean: 0.0818571 max: 0.408684
smoothSolver:  Solving for Ux, Initial residual = 4.82754e-06, Final residual = 1.32811e-08, No Iterations 1
smoothSolver:  Solving for Uy, Initial residual = 3.86593e-05, Final residual = 1.76744e-09, No Iterations 2
DICPCG:  Solving for p, Initial residual = 7.70773e-06, Final residual = 9.78847e-08, No Iterations 81
time step continuity errors : sum local = 1.16104e-12, global = -7.60862e-14, cumulative = -1.79436e-10
DICPCG:  Solving for p, Initial residual = 1.48894e-06, Final residual = 9.67962e-08, No Iterations 24
time step continuity errors : sum local = 1.14806e-12, global = -1.48958e-13, cumulative = -1.79584e-10
ExecutionTime = 211.18 s  ClockTime = 211 s

Time = 39.91

Courant Number mean: 0.0818571 max: 0.408683
smoothSolver:  Solving for Ux, Initial residual = 4.82439e-06, Final residual = 1.32728e-08, No Iterations 1
smoothSolver:  Solving for Uy, Initial residual = 3.86284e-05, Final residual = 1.76621e-09, No Iterations 2
DICPCG:  Solving for p, Initial residual = 7.32032e-06, Final residual = 9.76736e-08, No Iterations 81
time step continuity errors : sum local = 1.15847e-12, global = -7.39968e-14, cumulative = -1.79658e-10
DICPCG:  Solving for p, Initial residual = 1.45966e-06, Final residual = 9.34072e-08, No Iterations 24
time step continuity errors : sum local = 1.1078e-12, global = -1.48644e-13, cumulative = -1.79807e-10
ExecutionTime = 211.22 s  ClockTime = 211 s

Time = 39.92

Courant Number mean: 0.0818571 max: 0.408682
smoothSolver:  Solving for Ux, Initial residual = 4.82125e-06, Final residual = 1.32646e-08, No Iterations 1
smoothSolver:  Solving for Uy, Initial residual = 3.85981e-05, Final residual = 1.765e-09, No Iterations 2
DICPCG:  Solving for p, Initial residual = 7.34086e-06, Final residual = 9.74886e-08, No Iterations 81
time step continuity errors : sum local = 1.15621e-12, global = -7.36739e-14, cumulative = -1.79881e-10
DICPCG:  Solving for p, Initial residual = 1.46084e-06, Final residual = 9.3238e-08, No Iterations 24
time step continuity errors : sum local = 1.10573e-12, global = -1.48559e-13, cumulative = -1.80029e-10
ExecutionTime = 211.25 s  ClockTime = 211 s

Time = 39.93

Courant Number mean: 0.0818571 max: 0.408681
smoothSolver:  Solving for Ux, Initial residual = 4.8181e-06, Final residual = 1.32563e-08, No Iterations 1
smoothSolver:  Solving for Uy, Initial residual = 3.85679e-05, Final residual = 1.76379e-09, No Iterations 2
DICPCG:  Solving for p, Initial residual = 7.41033e-06, Final residual = 9.76803e-08, No Iterations 81
time step continuity errors : sum local = 1.15841e-12, global = -7.39122e-14, cumulative = -1.80103e-10
DICPCG:  Solving for p, Initial residual = 1.46511e-06, Final residual = 9.39166e-08, No Iterations 24
time step continuity errors : sum local = 1.11372e-12, global = -1.48488e-13, cumulative = -1.80252e-10
ExecutionTime = 211.29 s  ClockTime = 211 s

Time = 39.94

Courant Number mean: 0.0818571 max: 0.40868
smoothSolver:  Solving for Ux, Initial residual = 4.81497e-06, Final residual = 1.32482e-08, No Iterations 1
smoothSolver:  Solving for Uy, Initial residual = 3.85378e-05, Final residual = 1.7626e-09, No Iterations 2
DICPCG:  Solving for p, Initial residual = 7.58445e-06, Final residual = 9.78111e-08, No Iterations 81
time step continuity errors : sum local = 1.1599e-12, global = -7.44194e-14, cumulative = -1.80326e-10
DICPCG:  Solving for p, Initial residual = 1.47573e-06, Final residual = 9.50703e-08, No Iterations 24
time step continuity errors : sum local = 1.12734e-12, global = -1.48416e-13, cumulative = -1.80475e-10
ExecutionTime = 211.33 s  ClockTime = 211 s

Time = 39.95

Courant Number mean: 0.0818571 max: 0.408679
smoothSolver:  Solving for Ux, Initial residual = 4.81184e-06, Final residual = 1.32401e-08, No Iterations 1
smoothSolver:  Solving for Uy, Initial residual = 3.85081e-05, Final residual = 1.76143e-09, No Iterations 2
DICPCG:  Solving for p, Initial residual = 8.02497e-06, Final residual = 9.56812e-08, No Iterations 81
time step continuity errors : sum local = 1.13458e-12, global = -7.51244e-14, cumulative = -1.8055e-10
DICPCG:  Solving for p, Initial residual = 1.50337e-06, Final residual = 9.73223e-08, No Iterations 24
time step continuity errors : sum local = 1.15397e-12, global = -1.48299e-13, cumulative = -1.80698e-10
ExecutionTime = 211.37 s  ClockTime = 211 s

Time = 39.96

Courant Number mean: 0.0818571 max: 0.408678
smoothSolver:  Solving for Ux, Initial residual = 4.80874e-06, Final residual = 1.32323e-08, No Iterations 1
smoothSolver:  Solving for Uy, Initial residual = 3.84791e-05, Final residual = 1.76031e-09, No Iterations 2
DICPCG:  Solving for p, Initial residual = 8.84292e-06, Final residual = 8.77524e-08, No Iterations 82
time step continuity errors : sum local = 1.0405e-12, global = -7.01354e-14, cumulative = -1.80768e-10
DICPCG:  Solving for p, Initial residual = 1.55829e-06, Final residual = 9.57602e-08, No Iterations 24
time step continuity errors : sum local = 1.13539e-12, global = -1.48903e-13, cumulative = -1.80917e-10
ExecutionTime = 211.41 s  ClockTime = 211 s

Time = 39.97

Courant Number mean: 0.081857 max: 0.408677
smoothSolver:  Solving for Ux, Initial residual = 4.8055e-06, Final residual = 1.32226e-08, No Iterations 1
smoothSolver:  Solving for Uy, Initial residual = 3.84459e-05, Final residual = 1.7589e-09, No Iterations 2
DICPCG:  Solving for p, Initial residual = 8.97752e-06, Final residual = 8.72012e-08, No Iterations 82
time step continuity errors : sum local = 1.03391e-12, global = -6.96995e-14, cumulative = -1.80987e-10
DICPCG:  Solving for p, Initial residual = 1.56937e-06, Final residual = 9.80258e-08, No Iterations 24
time step continuity errors : sum local = 1.16219e-12, global = -1.48748e-13, cumulative = -1.81135e-10
ExecutionTime = 211.45 s  ClockTime = 211 s

Time = 39.98

Courant Number mean: 0.081857 max: 0.408676
smoothSolver:  Solving for Ux, Initial residual = 4.80227e-06, Final residual = 1.32131e-08, No Iterations 1
smoothSolver:  Solving for Uy, Initial residual = 3.84124e-05, Final residual = 1.7575e-09, No Iterations 2
DICPCG:  Solving for p, Initial residual = 7.41308e-06, Final residual = 9.75915e-08, No Iterations 81
time step continuity errors : sum local = 1.15703e-12, global = -7.43202e-14, cumulative = -1.8121e-10
DICPCG:  Solving for p, Initial residual = 1.45573e-06, Final residual = 9.34094e-08, No Iterations 24
time step continuity errors : sum local = 1.10739e-12, global = -1.48247e-13, cumulative = -1.81358e-10
ExecutionTime = 211.49 s  ClockTime = 211 s

Time = 39.99

Courant Number mean: 0.081857 max: 0.408675
smoothSolver:  Solving for Ux, Initial residual = 4.79914e-06, Final residual = 1.32049e-08, No Iterations 1
smoothSolver:  Solving for Uy, Initial residual = 3.83826e-05, Final residual = 1.75636e-09, No Iterations 2
DICPCG:  Solving for p, Initial residual = 7.42521e-06, Final residual = 9.64591e-08, No Iterations 81
time step continuity errors : sum local = 1.14354e-12, global = -7.44993e-14, cumulative = -1.81433e-10
DICPCG:  Solving for p, Initial residual = 1.45465e-06, Final residual = 9.36452e-08, No Iterations 24
time step continuity errors : sum local = 1.11012e-12, global = -1.4816e-13, cumulative = -1.81581e-10
ExecutionTime = 211.52 s  ClockTime = 212 s

Time = 40

Courant Number mean: 0.081857 max: 0.408674
smoothSolver:  Solving for Ux, Initial residual = 4.79602e-06, Final residual = 1.31967e-08, No Iterations 1
smoothSolver:  Solving for Uy, Initial residual = 3.83523e-05, Final residual = 1.7551e-09, No Iterations 2
DICPCG:  Solving for p, Initial residual = 7.32301e-06, Final residual = 9.5755e-08, No Iterations 81
time step continuity errors : sum local = 1.13513e-12, global = -7.39129e-14, cumulative = -1.81655e-10
DICPCG:  Solving for p, Initial residual = 1.45121e-06, Final residual = 9.35253e-08, No Iterations 24
time step continuity errors : sum local = 1.10864e-12, global = -1.47992e-13, cumulative = -1.81803e-10
ExecutionTime = 211.66 s  ClockTime = 212 s

End

Finalising parallel run
