/*---------------------------------------------------------------------------*\
  =========                 |
  \\      /  F ield         | OpenFOAM: The Open Source CFD Toolbox
   \\    /   O peration     | Website:  https://openfoam.org
    \\  /    A nd           | Version:  7
     \\/     M anipulation  |
\*---------------------------------------------------------------------------*/
Build  : 7-49b2b3b8b082
Exec   : icoFoam -parallel
Date   : Apr 05 2021
Time   : 12:33:49
Host   : "c416-064.stampede2.tacc.utexas.edu"
PID    : 175377
I/O    : uncollated
Case   : /work/06783/hslee21/stampede2/COE-347-SP21/of2/section9_hsl/re20_3_forCarson
nProcs : 8
Slaves : 
7
(
"c416-064.stampede2.tacc.utexas.edu.175378"
"c416-064.stampede2.tacc.utexas.edu.175379"
"c416-064.stampede2.tacc.utexas.edu.175380"
"c416-064.stampede2.tacc.utexas.edu.175381"
"c416-064.stampede2.tacc.utexas.edu.175382"
"c416-064.stampede2.tacc.utexas.edu.175383"
"c416-064.stampede2.tacc.utexas.edu.175384"
)

Pstream initialized with:
    floatTransfer      : 0
    nProcsSimpleSum    : 0
    commsType          : nonBlocking
    polling iterations : 0
sigFpe : Enabling floating point exception trapping (FOAM_SIGFPE).
fileModificationChecking : Monitoring run-time modified files using timeStampMaster (fileModificationSkew 10)
allowSystemOperations : Allowing user-supplied system call operations

// * * * * * * * * * * * * * * * * * * * * * * * * * * * * * * * * * * * * * //
Create time

Create mesh for time = 0

Reading transportProperties

Reading field p

Reading field U

Reading/calculating face flux field phi


Starting time loop

Reading set description:
    quarterpi
    halfpi
    threequarterpi
    recirc
    WakeProfile2d
    WakeProfile4d

Time = 0.01

Courant Number mean: 0.134712 max: 0.334224
smoothSolver:  Solving for Ux, Initial residual = 1, Final residual = 2.87276e-08, No Iterations 10
smoothSolver:  Solving for Uy, Initial residual = 0, Final residual = 0, No Iterations 0
DICPCG:  Solving for p, Initial residual = 1, Final residual = 9.48342e-08, No Iterations 194
time step continuity errors : sum local = 1.76288e-11, global = -4.06582e-14, cumulative = -4.06582e-14
DICPCG:  Solving for p, Initial residual = 0.0500796, Final residual = 8.44116e-08, No Iterations 174
time step continuity errors : sum local = 2.3826e-10, global = -8.24481e-13, cumulative = -8.65139e-13
ExecutionTime = 0.36 s  ClockTime = 1 s

Time = 0.02

Courant Number mean: 0.134495 max: 0.314745
smoothSolver:  Solving for Ux, Initial residual = 0.328897, Final residual = 6.5639e-08, No Iterations 9
smoothSolver:  Solving for Uy, Initial residual = 0.327916, Final residual = 3.11797e-08, No Iterations 9
DICPCG:  Solving for p, Initial residual = 0.0899162, Final residual = 7.96633e-08, No Iterations 184
time step continuity errors : sum local = 1.81842e-10, global = -1.5294e-13, cumulative = -1.01808e-12
DICPCG:  Solving for p, Initial residual = 0.207982, Final residual = 9.16773e-08, No Iterations 185
time step continuity errors : sum local = 6.11655e-11, global = 2.71006e-13, cumulative = -7.47073e-13
ExecutionTime = 0.43 s  ClockTime = 1 s

Time = 0.03

Courant Number mean: 0.134485 max: 0.305304
smoothSolver:  Solving for Ux, Initial residual = 0.0219524, Final residual = 6.39296e-08, No Iterations 7
smoothSolver:  Solving for Uy, Initial residual = 0.0213481, Final residual = 5.64048e-08, No Iterations 6
DICPCG:  Solving for p, Initial residual = 0.396928, Final residual = 9.91e-08, No Iterations 177
time step continuity errors : sum local = 8.60047e-12, global = -6.75807e-15, cumulative = -7.53831e-13
DICPCG:  Solving for p, Initial residual = 0.0474185, Final residual = 8.91625e-08, No Iterations 168
time step continuity errors : sum local = 1.23855e-11, global = 9.24053e-14, cumulative = -6.61426e-13
ExecutionTime = 0.48 s  ClockTime = 1 s

Time = 0.04

Courant Number mean: 0.134439 max: 0.294323
smoothSolver:  Solving for Ux, Initial residual = 0.0218076, Final residual = 3.62773e-08, No Iterations 7
smoothSolver:  Solving for Uy, Initial residual = 0.0191927, Final residual = 5.16484e-08, No Iterations 6
DICPCG:  Solving for p, Initial residual = 0.051493, Final residual = 8.17806e-08, No Iterations 169
time step continuity errors : sum local = 1.02202e-11, global = 1.08878e-16, cumulative = -6.61317e-13
DICPCG:  Solving for p, Initial residual = 0.0169145, Final residual = 9.97038e-08, No Iterations 166
time step continuity errors : sum local = 9.66668e-12, global = 7.70955e-14, cumulative = -5.84222e-13
ExecutionTime = 0.54 s  ClockTime = 1 s

Time = 0.05

Courant Number mean: 0.134405 max: 0.283797
smoothSolver:  Solving for Ux, Initial residual = 0.016727, Final residual = 9.89588e-08, No Iterations 6
smoothSolver:  Solving for Uy, Initial residual = 0.0153732, Final residual = 4.43948e-08, No Iterations 6
DICPCG:  Solving for p, Initial residual = 0.033469, Final residual = 9.67213e-08, No Iterations 168
time step continuity errors : sum local = 9.74423e-12, global = -1.5605e-14, cumulative = -5.99827e-13
DICPCG:  Solving for p, Initial residual = 0.011462, Final residual = 8.44098e-08, No Iterations 165
time step continuity errors : sum local = 7.19044e-12, global = 6.0796e-14, cumulative = -5.39031e-13
ExecutionTime = 0.59 s  ClockTime = 1 s

Time = 0.06

Courant Number mean: 0.134377 max: 0.279082
smoothSolver:  Solving for Ux, Initial residual = 0.0137863, Final residual = 7.8078e-08, No Iterations 6
smoothSolver:  Solving for Uy, Initial residual = 0.013156, Final residual = 3.88606e-08, No Iterations 6
DICPCG:  Solving for p, Initial residual = 0.0276127, Final residual = 8.63309e-08, No Iterations 168
time step continuity errors : sum local = 7.52046e-12, global = -1.17751e-14, cumulative = -5.50806e-13
DICPCG:  Solving for p, Initial residual = 0.00915853, Final residual = 8.81382e-08, No Iterations 164
time step continuity errors : sum local = 6.71204e-12, global = 4.68247e-14, cumulative = -5.03981e-13
ExecutionTime = 0.65 s  ClockTime = 1 s

Time = 0.07

Courant Number mean: 0.134352 max: 0.274134
smoothSolver:  Solving for Ux, Initial residual = 0.0118295, Final residual = 6.38733e-08, No Iterations 6
smoothSolver:  Solving for Uy, Initial residual = 0.0115849, Final residual = 3.46761e-08, No Iterations 6
DICPCG:  Solving for p, Initial residual = 0.0240504, Final residual = 9.87802e-08, No Iterations 166
time step continuity errors : sum local = 7.65019e-12, global = -4.82848e-14, cumulative = -5.52266e-13
DICPCG:  Solving for p, Initial residual = 0.00782803, Final residual = 7.12917e-08, No Iterations 164
time step continuity errors : sum local = 4.94219e-12, global = 3.88597e-14, cumulative = -5.13406e-13
ExecutionTime = 0.7 s  ClockTime = 1 s

Time = 0.08

Courant Number mean: 0.13433 max: 0.268897
smoothSolver:  Solving for Ux, Initial residual = 0.0104064, Final residual = 5.34938e-08, No Iterations 6
smoothSolver:  Solving for Uy, Initial residual = 0.0104312, Final residual = 3.21454e-08, No Iterations 6
DICPCG:  Solving for p, Initial residual = 0.0214722, Final residual = 8.54419e-08, No Iterations 166
time step continuity errors : sum local = 6.00305e-12, global = -4.65341e-14, cumulative = -5.5994e-13
DICPCG:  Solving for p, Initial residual = 0.00695663, Final residual = 8.62774e-08, No Iterations 163
time step continuity errors : sum local = 5.52137e-12, global = 2.40332e-14, cumulative = -5.35907e-13
ExecutionTime = 0.76 s  ClockTime = 1 s

Time = 0.09

Courant Number mean: 0.13431 max: 0.263966
smoothSolver:  Solving for Ux, Initial residual = 0.00933327, Final residual = 4.55746e-08, No Iterations 6
smoothSolver:  Solving for Uy, Initial residual = 0.00951015, Final residual = 2.99979e-08, No Iterations 6
DICPCG:  Solving for p, Initial residual = 0.0195611, Final residual = 9.47536e-08, No Iterations 165
time step continuity errors : sum local = 6.13033e-12, global = -6.47837e-14, cumulative = -6.00691e-13
DICPCG:  Solving for p, Initial residual = 0.00628389, Final residual = 7.57044e-08, No Iterations 163
time step continuity errors : sum local = 4.5187e-12, global = 2.04833e-14, cumulative = -5.80207e-13
ExecutionTime = 0.81 s  ClockTime = 1 s

Time = 0.1

Courant Number mean: 0.134292 max: 0.261468
smoothSolver:  Solving for Ux, Initial residual = 0.00849292, Final residual = 3.93446e-08, No Iterations 6
smoothSolver:  Solving for Uy, Initial residual = 0.00875762, Final residual = 2.8049e-08, No Iterations 6
DICPCG:  Solving for p, Initial residual = 0.0180244, Final residual = 8.29463e-08, No Iterations 165
time step continuity errors : sum local = 4.99619e-12, global = -5.50371e-14, cumulative = -6.35244e-13
DICPCG:  Solving for p, Initial residual = 0.00574154, Final residual = 8.97103e-08, No Iterations 162
time step continuity errors : sum local = 5.03685e-12, global = -7.78766e-16, cumulative = -6.36023e-13
ExecutionTime = 0.87 s  ClockTime = 1 s

Time = 0.11

Courant Number mean: 0.134274 max: 0.258767
smoothSolver:  Solving for Ux, Initial residual = 0.00780512, Final residual = 3.43459e-08, No Iterations 6
smoothSolver:  Solving for Uy, Initial residual = 0.00815622, Final residual = 2.60749e-08, No Iterations 6
DICPCG:  Solving for p, Initial residual = 0.0169108, Final residual = 7.68887e-08, No Iterations 165
time step continuity errors : sum local = 4.35052e-12, global = -4.84595e-14, cumulative = -6.84483e-13
DICPCG:  Solving for p, Initial residual = 0.00536332, Final residual = 9.43814e-08, No Iterations 161
time step continuity errors : sum local = 5.01992e-12, global = -2.73677e-14, cumulative = -7.1185e-13
ExecutionTime = 0.92 s  ClockTime = 1 s

Time = 0.12

Courant Number mean: 0.134258 max: 0.255938
smoothSolver:  Solving for Ux, Initial residual = 0.00723159, Final residual = 3.02713e-08, No Iterations 6
smoothSolver:  Solving for Uy, Initial residual = 0.00764938, Final residual = 9.99991e-08, No Iterations 5
DICPCG:  Solving for p, Initial residual = 0.0156615, Final residual = 9.77903e-08, No Iterations 164
time step continuity errors : sum local = 5.23569e-12, global = -4.77399e-14, cumulative = -7.5959e-13
DICPCG:  Solving for p, Initial residual = 0.00495736, Final residual = 9.63277e-08, No Iterations 160
time step continuity errors : sum local = 4.88067e-12, global = -5.19525e-14, cumulative = -8.11543e-13
ExecutionTime = 0.97 s  ClockTime = 1 s

Time = 0.13

Courant Number mean: 0.134242 max: 0.253039
smoothSolver:  Solving for Ux, Initial residual = 0.00675284, Final residual = 2.68964e-08, No Iterations 6
smoothSolver:  Solving for Uy, Initial residual = 0.00721265, Final residual = 9.27437e-08, No Iterations 5
DICPCG:  Solving for p, Initial residual = 0.01462, Final residual = 9.11565e-08, No Iterations 164
time step continuity errors : sum local = 4.64503e-12, global = -4.16586e-14, cumulative = -8.53201e-13
DICPCG:  Solving for p, Initial residual = 0.00462752, Final residual = 9.73033e-08, No Iterations 153
time step continuity errors : sum local = 4.71803e-12, global = -6.02534e-14, cumulative = -9.13455e-13
ExecutionTime = 1.03 s  ClockTime = 1 s

Time = 0.14

Courant Number mean: 0.134227 max: 0.250226
smoothSolver:  Solving for Ux, Initial residual = 0.00634453, Final residual = 2.40643e-08, No Iterations 6
smoothSolver:  Solving for Uy, Initial residual = 0.00682957, Final residual = 8.59648e-08, No Iterations 5
DICPCG:  Solving for p, Initial residual = 0.0137552, Final residual = 8.61541e-08, No Iterations 164
time step continuity errors : sum local = 4.19882e-12, global = -3.77122e-14, cumulative = -9.51167e-13
DICPCG:  Solving for p, Initial residual = 0.00438295, Final residual = 9.55585e-08, No Iterations 152
time step continuity errors : sum local = 4.45341e-12, global = -3.30296e-14, cumulative = -9.84197e-13
ExecutionTime = 1.08 s  ClockTime = 1 s

Time = 0.15

Courant Number mean: 0.134213 max: 0.247823
smoothSolver:  Solving for Ux, Initial residual = 0.00598839, Final residual = 9.14538e-08, No Iterations 5
smoothSolver:  Solving for Uy, Initial residual = 0.0064965, Final residual = 7.96862e-08, No Iterations 5
DICPCG:  Solving for p, Initial residual = 0.0127632, Final residual = 7.86658e-08, No Iterations 164
time step continuity errors : sum local = 3.68294e-12, global = -3.43529e-14, cumulative = -1.01855e-12
DICPCG:  Solving for p, Initial residual = 0.00412102, Final residual = 9.63232e-08, No Iterations 151
time step continuity errors : sum local = 4.33055e-12, global = -1.3036e-14, cumulative = -1.03159e-12
ExecutionTime = 1.13 s  ClockTime = 1 s

Time = 0.16

Courant Number mean: 0.1342 max: 0.246449
smoothSolver:  Solving for Ux, Initial residual = 0.00567476, Final residual = 8.32351e-08, No Iterations 5
smoothSolver:  Solving for Uy, Initial residual = 0.00620715, Final residual = 7.38993e-08, No Iterations 5
DICPCG:  Solving for p, Initial residual = 0.0121272, Final residual = 9.76362e-08, No Iterations 163
time step continuity errors : sum local = 4.40667e-12, global = -2.80067e-14, cumulative = -1.05959e-12
DICPCG:  Solving for p, Initial residual = 0.00391499, Final residual = 8.90179e-08, No Iterations 151
time step continuity errors : sum local = 3.87118e-12, global = -8.36574e-15, cumulative = -1.06796e-12
ExecutionTime = 1.19 s  ClockTime = 1 s

Time = 0.17

Courant Number mean: 0.134187 max: 0.245009
smoothSolver:  Solving for Ux, Initial residual = 0.00539724, Final residual = 7.60914e-08, No Iterations 5
smoothSolver:  Solving for Uy, Initial residual = 0.0059513, Final residual = 6.8597e-08, No Iterations 5
DICPCG:  Solving for p, Initial residual = 0.0115077, Final residual = 9.0542e-08, No Iterations 163
time step continuity errors : sum local = 3.95115e-12, global = -2.614e-14, cumulative = -1.0941e-12
DICPCG:  Solving for p, Initial residual = 0.00376022, Final residual = 9.65479e-08, No Iterations 150
time step continuity errors : sum local = 4.0721e-12, global = 9.6991e-15, cumulative = -1.0844e-12
ExecutionTime = 1.24 s  ClockTime = 1 s

Time = 0.18

Courant Number mean: 0.134175 max: 0.243523
smoothSolver:  Solving for Ux, Initial residual = 0.00515288, Final residual = 6.98493e-08, No Iterations 5
smoothSolver:  Solving for Uy, Initial residual = 0.00572168, Final residual = 6.37584e-08, No Iterations 5
DICPCG:  Solving for p, Initial residual = 0.0109899, Final residual = 8.49649e-08, No Iterations 163
time step continuity errors : sum local = 3.59453e-12, global = -2.33767e-14, cumulative = -1.10778e-12
DICPCG:  Solving for p, Initial residual = 0.00358504, Final residual = 8.93329e-08, No Iterations 150
time step continuity errors : sum local = 3.66224e-12, global = 1.23519e-14, cumulative = -1.09542e-12
ExecutionTime = 1.3 s  ClockTime = 1 s

Time = 0.19

Courant Number mean: 0.134163 max: 0.242006
smoothSolver:  Solving for Ux, Initial residual = 0.0049346, Final residual = 6.4349e-08, No Iterations 5
smoothSolver:  Solving for Uy, Initial residual = 0.0055133, Final residual = 5.93392e-08, No Iterations 5
DICPCG:  Solving for p, Initial residual = 0.010581, Final residual = 9.45608e-08, No Iterations 162
time step continuity errors : sum local = 3.88769e-12, global = -9.11846e-15, cumulative = -1.10454e-12
DICPCG:  Solving for p, Initial residual = 0.00347509, Final residual = 9.63917e-08, No Iterations 149
time step continuity errors : sum local = 3.84931e-12, global = 3.18679e-14, cumulative = -1.07267e-12
ExecutionTime = 1.35 s  ClockTime = 2 s

Time = 0.2

Courant Number mean: 0.134152 max: 0.240471
smoothSolver:  Solving for Ux, Initial residual = 0.00473643, Final residual = 5.94848e-08, No Iterations 5
smoothSolver:  Solving for Uy, Initial residual = 0.00532508, Final residual = 5.53249e-08, No Iterations 5
DICPCG:  Solving for p, Initial residual = 0.0100832, Final residual = 8.83325e-08, No Iterations 162
time step continuity errors : sum local = 3.53678e-12, global = -5.93149e-15, cumulative = -1.07861e-12
DICPCG:  Solving for p, Initial residual = 0.00332705, Final residual = 8.9813e-08, No Iterations 149
time step continuity errors : sum local = 3.50057e-12, global = 3.10297e-14, cumulative = -1.04758e-12
ExecutionTime = 1.39 s  ClockTime = 2 s

Time = 0.21

Courant Number mean: 0.134141 max: 0.238927
smoothSolver:  Solving for Ux, Initial residual = 0.00455591, Final residual = 5.51495e-08, No Iterations 5
smoothSolver:  Solving for Uy, Initial residual = 0.00515702, Final residual = 5.16875e-08, No Iterations 5
DICPCG:  Solving for p, Initial residual = 0.00963364, Final residual = 8.08449e-08, No Iterations 162
time step continuity errors : sum local = 3.15844e-12, global = -2.98427e-15, cumulative = -1.05056e-12
DICPCG:  Solving for p, Initial residual = 0.00320488, Final residual = 9.52015e-08, No Iterations 148
time step continuity errors : sum local = 3.62741e-12, global = 4.94153e-14, cumulative = -1.00115e-12
ExecutionTime = 1.44 s  ClockTime = 2 s

Time = 0.22

Courant Number mean: 0.13413 max: 0.237384
smoothSolver:  Solving for Ux, Initial residual = 0.00439085, Final residual = 5.12755e-08, No Iterations 5
smoothSolver:  Solving for Uy, Initial residual = 0.00500442, Final residual = 4.83716e-08, No Iterations 5
DICPCG:  Solving for p, Initial residual = 0.00917002, Final residual = 9.82271e-08, No Iterations 161
time step continuity errors : sum local = 3.75104e-12, global = 2.26401e-14, cumulative = -9.78505e-13
DICPCG:  Solving for p, Initial residual = 0.0030743, Final residual = 8.92153e-08, No Iterations 148
time step continuity errors : sum local = 3.32837e-12, global = 4.53996e-14, cumulative = -9.33105e-13
ExecutionTime = 1.5 s  ClockTime = 2 s

Time = 0.23

Courant Number mean: 0.13412 max: 0.235848
smoothSolver:  Solving for Ux, Initial residual = 0.0042399, Final residual = 4.77928e-08, No Iterations 5
smoothSolver:  Solving for Uy, Initial residual = 0.0048636, Final residual = 4.53632e-08, No Iterations 5
DICPCG:  Solving for p, Initial residual = 0.00888881, Final residual = 9.29152e-08, No Iterations 161
time step continuity errors : sum local = 3.47353e-12, global = 2.65149e-14, cumulative = -9.06591e-13
DICPCG:  Solving for p, Initial residual = 0.00295217, Final residual = 9.92132e-08, No Iterations 147
time step continuity errors : sum local = 3.62911e-12, global = 5.75303e-14, cumulative = -8.4906e-13
ExecutionTime = 1.56 s  ClockTime = 2 s

Time = 0.24

Courant Number mean: 0.134111 max: 0.234651
smoothSolver:  Solving for Ux, Initial residual = 0.00410235, Final residual = 4.46503e-08, No Iterations 5
smoothSolver:  Solving for Uy, Initial residual = 0.00473362, Final residual = 4.26404e-08, No Iterations 5
DICPCG:  Solving for p, Initial residual = 0.00868843, Final residual = 8.86913e-08, No Iterations 161
time step continuity errors : sum local = 3.25021e-12, global = 3.11105e-14, cumulative = -8.1795e-13
DICPCG:  Solving for p, Initial residual = 0.0029013, Final residual = 9.39771e-08, No Iterations 147
time step continuity errors : sum local = 3.37427e-12, global = 5.04505e-14, cumulative = -7.67499e-13
ExecutionTime = 1.6 s  ClockTime = 2 s

Time = 0.25

Courant Number mean: 0.134101 max: 0.233905
smoothSolver:  Solving for Ux, Initial residual = 0.00397629, Final residual = 4.18116e-08, No Iterations 5
smoothSolver:  Solving for Uy, Initial residual = 0.00461243, Final residual = 4.01526e-08, No Iterations 5
DICPCG:  Solving for p, Initial residual = 0.00815407, Final residual = 8.26212e-08, No Iterations 161
time step continuity errors : sum local = 2.97182e-12, global = 3.37925e-14, cumulative = -7.33707e-13
DICPCG:  Solving for p, Initial residual = 0.00276056, Final residual = 8.83295e-08, No Iterations 147
time step continuity errors : sum local = 3.11671e-12, global = 4.49639e-14, cumulative = -6.88743e-13
ExecutionTime = 1.66 s  ClockTime = 2 s

Time = 0.26

Courant Number mean: 0.134093 max: 0.233139
smoothSolver:  Solving for Ux, Initial residual = 0.0038588, Final residual = 3.92328e-08, No Iterations 5
smoothSolver:  Solving for Uy, Initial residual = 0.004501, Final residual = 3.78848e-08, No Iterations 5
DICPCG:  Solving for p, Initial residual = 0.00788938, Final residual = 7.83065e-08, No Iterations 161
time step continuity errors : sum local = 2.76789e-12, global = 3.65434e-14, cumulative = -6.52199e-13
DICPCG:  Solving for p, Initial residual = 0.00267768, Final residual = 8.40122e-08, No Iterations 147
time step continuity errors : sum local = 2.91673e-12, global = 4.03614e-14, cumulative = -6.11838e-13
ExecutionTime = 1.71 s  ClockTime = 2 s

Time = 0.27

Courant Number mean: 0.134084 max: 0.232359
smoothSolver:  Solving for Ux, Initial residual = 0.0037496, Final residual = 3.68875e-08, No Iterations 5
smoothSolver:  Solving for Uy, Initial residual = 0.00439925, Final residual = 3.57946e-08, No Iterations 5
DICPCG:  Solving for p, Initial residual = 0.00766717, Final residual = 7.46786e-08, No Iterations 161
time step continuity errors : sum local = 2.59662e-12, global = 3.87163e-14, cumulative = -5.73122e-13
DICPCG:  Solving for p, Initial residual = 0.00260261, Final residual = 9.47977e-08, No Iterations 146
time step continuity errors : sum local = 3.24059e-12, global = 4.551e-14, cumulative = -5.27612e-13
ExecutionTime = 1.76 s  ClockTime = 2 s

Time = 0.28

Courant Number mean: 0.134076 max: 0.231567
smoothSolver:  Solving for Ux, Initial residual = 0.00364772, Final residual = 3.47473e-08, No Iterations 5
smoothSolver:  Solving for Uy, Initial residual = 0.00430577, Final residual = 3.38688e-08, No Iterations 5
DICPCG:  Solving for p, Initial residual = 0.00740169, Final residual = 9.40472e-08, No Iterations 160
time step continuity errors : sum local = 3.21968e-12, global = 6.59492e-14, cumulative = -4.61663e-13
DICPCG:  Solving for p, Initial residual = 0.00251377, Final residual = 9.03597e-08, No Iterations 146
time step continuity errors : sum local = 3.04426e-12, global = 4.11645e-14, cumulative = -4.20498e-13
ExecutionTime = 1.81 s  ClockTime = 2 s

Time = 0.29

Courant Number mean: 0.134068 max: 0.230768
smoothSolver:  Solving for Ux, Initial residual = 0.00355243, Final residual = 3.27869e-08, No Iterations 5
smoothSolver:  Solving for Uy, Initial residual = 0.00421706, Final residual = 3.20819e-08, No Iterations 5
DICPCG:  Solving for p, Initial residual = 0.00716358, Final residual = 8.87034e-08, No Iterations 160
time step continuity errors : sum local = 2.99264e-12, global = 6.4436e-14, cumulative = -3.56062e-13
DICPCG:  Solving for p, Initial residual = 0.00245162, Final residual = 9.81811e-08, No Iterations 145
time step continuity errors : sum local = 3.26264e-12, global = 4.25389e-14, cumulative = -3.13523e-13
ExecutionTime = 1.86 s  ClockTime = 2 s

Time = 0.3

Courant Number mean: 0.13406 max: 0.229964
smoothSolver:  Solving for Ux, Initial residual = 0.00346337, Final residual = 3.09898e-08, No Iterations 5
smoothSolver:  Solving for Uy, Initial residual = 0.00413312, Final residual = 3.04307e-08, No Iterations 5
DICPCG:  Solving for p, Initial residual = 0.00702163, Final residual = 8.41339e-08, No Iterations 160
time step continuity errors : sum local = 2.79945e-12, global = 6.20608e-14, cumulative = -2.51462e-13
DICPCG:  Solving for p, Initial residual = 0.0023905, Final residual = 9.1865e-08, No Iterations 145
time step continuity errors : sum local = 3.01316e-12, global = 3.81027e-14, cumulative = -2.1336e-13
ExecutionTime = 1.91 s  ClockTime = 2 s

Time = 0.31

Courant Number mean: 0.134053 max: 0.229159
smoothSolver:  Solving for Ux, Initial residual = 0.00338041, Final residual = 2.93355e-08, No Iterations 5
smoothSolver:  Solving for Uy, Initial residual = 0.00405389, Final residual = 2.88994e-08, No Iterations 5
DICPCG:  Solving for p, Initial residual = 0.00672296, Final residual = 9.97201e-08, No Iterations 151
time step continuity errors : sum local = 3.2747e-12, global = -2.76672e-15, cumulative = -2.16126e-13
DICPCG:  Solving for p, Initial residual = 0.00230565, Final residual = 8.86439e-08, No Iterations 145
time step continuity errors : sum local = 2.87148e-12, global = 3.4349e-14, cumulative = -1.81777e-13
ExecutionTime = 1.96 s  ClockTime = 2 s

Time = 0.32

Courant Number mean: 0.134046 max: 0.228353
smoothSolver:  Solving for Ux, Initial residual = 0.00330346, Final residual = 2.78068e-08, No Iterations 5
smoothSolver:  Solving for Uy, Initial residual = 0.00397916, Final residual = 2.74732e-08, No Iterations 5
DICPCG:  Solving for p, Initial residual = 0.00652708, Final residual = 9.61987e-08, No Iterations 151
time step continuity errors : sum local = 3.11992e-12, global = -2.40985e-15, cumulative = -1.84187e-13
DICPCG:  Solving for p, Initial residual = 0.00224694, Final residual = 9.4742e-08, No Iterations 144
time step continuity errors : sum local = 3.03325e-12, global = 3.7616e-14, cumulative = -1.46571e-13
ExecutionTime = 2.01 s  ClockTime = 2 s

Time = 0.33

Courant Number mean: 0.134039 max: 0.227549
smoothSolver:  Solving for Ux, Initial residual = 0.00323084, Final residual = 2.63943e-08, No Iterations 5
smoothSolver:  Solving for Uy, Initial residual = 0.00390884, Final residual = 2.61438e-08, No Iterations 5
DICPCG:  Solving for p, Initial residual = 0.00642054, Final residual = 9.20296e-08, No Iterations 151
time step continuity errors : sum local = 2.94959e-12, global = -1.3506e-15, cumulative = -1.47922e-13
DICPCG:  Solving for p, Initial residual = 0.0022005, Final residual = 8.98368e-08, No Iterations 144
time step continuity errors : sum local = 2.84407e-12, global = 3.25621e-14, cumulative = -1.1536e-13
ExecutionTime = 2.07 s  ClockTime = 2 s

Time = 0.34

Courant Number mean: 0.134032 max: 0.22675
smoothSolver:  Solving for Ux, Initial residual = 0.00316209, Final residual = 2.50873e-08, No Iterations 5
smoothSolver:  Solving for Uy, Initial residual = 0.00384462, Final residual = 2.49031e-08, No Iterations 5
DICPCG:  Solving for p, Initial residual = 0.00616029, Final residual = 9.834e-08, No Iterations 150
time step continuity errors : sum local = 3.11651e-12, global = -5.63245e-15, cumulative = -1.20992e-13
DICPCG:  Solving for p, Initial residual = 0.00212379, Final residual = 9.97794e-08, No Iterations 143
time step continuity errors : sum local = 3.12534e-12, global = 3.57917e-14, cumulative = -8.52004e-14
ExecutionTime = 2.12 s  ClockTime = 2 s

Time = 0.35

Courant Number mean: 0.134026 max: 0.225955
smoothSolver:  Solving for Ux, Initial residual = 0.00309695, Final residual = 2.3872e-08, No Iterations 5
smoothSolver:  Solving for Uy, Initial residual = 0.00378325, Final residual = 2.3745e-08, No Iterations 5
DICPCG:  Solving for p, Initial residual = 0.00609442, Final residual = 9.45672e-08, No Iterations 150
time step continuity errors : sum local = 2.96501e-12, global = -5.466e-15, cumulative = -9.06664e-14
DICPCG:  Solving for p, Initial residual = 0.00205938, Final residual = 9.57217e-08, No Iterations 143
time step continuity errors : sum local = 2.96789e-12, global = 3.18154e-14, cumulative = -5.8851e-14
ExecutionTime = 2.16 s  ClockTime = 2 s

Time = 0.36

Courant Number mean: 0.13402 max: 0.225166
smoothSolver:  Solving for Ux, Initial residual = 0.00303532, Final residual = 2.274e-08, No Iterations 5
smoothSolver:  Solving for Uy, Initial residual = 0.00372448, Final residual = 2.26601e-08, No Iterations 5
DICPCG:  Solving for p, Initial residual = 0.00599532, Final residual = 9.32595e-08, No Iterations 150
time step continuity errors : sum local = 2.8942e-12, global = -5.44764e-15, cumulative = -6.42986e-14
DICPCG:  Solving for p, Initial residual = 0.00203788, Final residual = 9.17968e-08, No Iterations 143
time step continuity errors : sum local = 2.81868e-12, global = 2.63145e-14, cumulative = -3.79842e-14
ExecutionTime = 2.22 s  ClockTime = 2 s

Time = 0.37

Courant Number mean: 0.134014 max: 0.224475
smoothSolver:  Solving for Ux, Initial residual = 0.00297655, Final residual = 2.16925e-08, No Iterations 5
smoothSolver:  Solving for Uy, Initial residual = 0.00366816, Final residual = 2.16488e-08, No Iterations 5
DICPCG:  Solving for p, Initial residual = 0.00574907, Final residual = 9.04123e-08, No Iterations 150
time step continuity errors : sum local = 2.77857e-12, global = -5.29211e-15, cumulative = -4.32763e-14
DICPCG:  Solving for p, Initial residual = 0.0019615, Final residual = 9.94291e-08, No Iterations 142
time step continuity errors : sum local = 3.02477e-12, global = 2.85051e-14, cumulative = -1.47711e-14
ExecutionTime = 2.26 s  ClockTime = 2 s

Time = 0.38

Courant Number mean: 0.134009 max: 0.2241
smoothSolver:  Solving for Ux, Initial residual = 0.0029207, Final residual = 2.07106e-08, No Iterations 5
smoothSolver:  Solving for Uy, Initial residual = 0.00361384, Final residual = 2.06992e-08, No Iterations 5
DICPCG:  Solving for p, Initial residual = 0.00563978, Final residual = 8.8606e-08, No Iterations 150
time step continuity errors : sum local = 2.69776e-12, global = -4.80429e-15, cumulative = -1.95754e-14
DICPCG:  Solving for p, Initial residual = 0.00192021, Final residual = 9.55503e-08, No Iterations 142
time step continuity errors : sum local = 2.88099e-12, global = 2.64067e-14, cumulative = 6.83131e-15
ExecutionTime = 2.32 s  ClockTime = 2 s

Time = 0.39

Courant Number mean: 0.134003 max: 0.223719
smoothSolver:  Solving for Ux, Initial residual = 0.00286746, Final residual = 1.97924e-08, No Iterations 5
smoothSolver:  Solving for Uy, Initial residual = 0.00356243, Final residual = 9.83613e-08, No Iterations 4
DICPCG:  Solving for p, Initial residual = 0.00548119, Final residual = 8.6217e-08, No Iterations 150
time step continuity errors : sum local = 2.60141e-12, global = -4.41071e-15, cumulative = 2.4206e-15
DICPCG:  Solving for p, Initial residual = 0.00187415, Final residual = 9.08698e-08, No Iterations 142
time step continuity errors : sum local = 2.71613e-12, global = 2.437e-14, cumulative = 2.67906e-14
ExecutionTime = 2.37 s  ClockTime = 3 s

Time = 0.4

Courant Number mean: 0.133998 max: 0.223333
smoothSolver:  Solving for Ux, Initial residual = 0.00281703, Final residual = 1.89341e-08, No Iterations 5
smoothSolver:  Solving for Uy, Initial residual = 0.00351457, Final residual = 9.45262e-08, No Iterations 4
DICPCG:  Solving for p, Initial residual = 0.0053772, Final residual = 8.35753e-08, No Iterations 150
time step continuity errors : sum local = 2.49996e-12, global = -5.80489e-15, cumulative = 2.09857e-14
DICPCG:  Solving for p, Initial residual = 0.00181597, Final residual = 8.77081e-08, No Iterations 142
time step continuity errors : sum local = 2.6002e-12, global = 2.25164e-14, cumulative = 4.35021e-14
ExecutionTime = 2.41 s  ClockTime = 3 s

Time = 0.41

Courant Number mean: 0.133993 max: 0.222943
smoothSolver:  Solving for Ux, Initial residual = 0.00276968, Final residual = 9.82149e-08, No Iterations 4
smoothSolver:  Solving for Uy, Initial residual = 0.00346902, Final residual = 9.09092e-08, No Iterations 4
DICPCG:  Solving for p, Initial residual = 0.00531393, Final residual = 9.90234e-08, No Iterations 149
time step continuity errors : sum local = 2.93775e-12, global = -7.72843e-15, cumulative = 3.57736e-14
DICPCG:  Solving for p, Initial residual = 0.00180576, Final residual = 8.38065e-08, No Iterations 142
time step continuity errors : sum local = 2.46512e-12, global = 2.00575e-14, cumulative = 5.58312e-14
ExecutionTime = 2.47 s  ClockTime = 3 s

Time = 0.42

Courant Number mean: 0.133989 max: 0.222551
smoothSolver:  Solving for Ux, Initial residual = 0.00272453, Final residual = 9.4446e-08, No Iterations 4
smoothSolver:  Solving for Uy, Initial residual = 0.00342547, Final residual = 8.74945e-08, No Iterations 4
DICPCG:  Solving for p, Initial residual = 0.00509237, Final residual = 9.44642e-08, No Iterations 149
time step continuity errors : sum local = 2.7805e-12, global = -8.63233e-15, cumulative = 4.71988e-14
DICPCG:  Solving for p, Initial residual = 0.00174559, Final residual = 9.82651e-08, No Iterations 141
time step continuity errors : sum local = 2.86867e-12, global = 2.61291e-14, cumulative = 7.3328e-14
ExecutionTime = 2.51 s  ClockTime = 3 s

Time = 0.43

Courant Number mean: 0.133984 max: 0.222155
smoothSolver:  Solving for Ux, Initial residual = 0.00268116, Final residual = 9.08725e-08, No Iterations 4
smoothSolver:  Solving for Uy, Initial residual = 0.00338359, Final residual = 8.42701e-08, No Iterations 4
DICPCG:  Solving for p, Initial residual = 0.00501622, Final residual = 9.26014e-08, No Iterations 149
time step continuity errors : sum local = 2.70525e-12, global = -9.74861e-15, cumulative = 6.35794e-14
DICPCG:  Solving for p, Initial residual = 0.00170674, Final residual = 9.25839e-08, No Iterations 141
time step continuity errors : sum local = 2.68355e-12, global = 2.56573e-14, cumulative = 8.92366e-14
ExecutionTime = 2.56 s  ClockTime = 3 s

Time = 0.44

Courant Number mean: 0.13398 max: 0.221759
smoothSolver:  Solving for Ux, Initial residual = 0.00263968, Final residual = 8.74961e-08, No Iterations 4
smoothSolver:  Solving for Uy, Initial residual = 0.00334312, Final residual = 8.12191e-08, No Iterations 4
DICPCG:  Solving for p, Initial residual = 0.0049506, Final residual = 8.90499e-08, No Iterations 149
time step continuity errors : sum local = 2.5827e-12, global = -1.01533e-14, cumulative = 7.90833e-14
DICPCG:  Solving for p, Initial residual = 0.0016755, Final residual = 9.98073e-08, No Iterations 140
time step continuity errors : sum local = 2.87288e-12, global = 3.62058e-14, cumulative = 1.15289e-13
ExecutionTime = 2.61 s  ClockTime = 3 s

Time = 0.45

Courant Number mean: 0.133976 max: 0.221361
smoothSolver:  Solving for Ux, Initial residual = 0.00259984, Final residual = 8.43143e-08, No Iterations 4
smoothSolver:  Solving for Uy, Initial residual = 0.0033042, Final residual = 7.83401e-08, No Iterations 4
DICPCG:  Solving for p, Initial residual = 0.00481284, Final residual = 9.91407e-08, No Iterations 148
time step continuity errors : sum local = 2.85536e-12, global = -1.47281e-14, cumulative = 1.00561e-13
DICPCG:  Solving for p, Initial residual = 0.00163627, Final residual = 9.69064e-08, No Iterations 140
time step continuity errors : sum local = 2.77068e-12, global = 3.71206e-14, cumulative = 1.37682e-13
ExecutionTime = 2.66 s  ClockTime = 3 s

Time = 0.46

Courant Number mean: 0.133972 max: 0.220963
smoothSolver:  Solving for Ux, Initial residual = 0.00256171, Final residual = 8.12983e-08, No Iterations 4
smoothSolver:  Solving for Uy, Initial residual = 0.00326665, Final residual = 7.56065e-08, No Iterations 4
DICPCG:  Solving for p, Initial residual = 0.00472273, Final residual = 9.50427e-08, No Iterations 148
time step continuity errors : sum local = 2.71887e-12, global = -1.6823e-14, cumulative = 1.20859e-13
DICPCG:  Solving for p, Initial residual = 0.00160117, Final residual = 9.35426e-08, No Iterations 140
time step continuity errors : sum local = 2.65718e-12, global = 3.67436e-14, cumulative = 1.57602e-13
ExecutionTime = 2.71 s  ClockTime = 3 s

Time = 0.47

Courant Number mean: 0.133968 max: 0.220565
smoothSolver:  Solving for Ux, Initial residual = 0.00252508, Final residual = 7.84459e-08, No Iterations 4
smoothSolver:  Solving for Uy, Initial residual = 0.00323067, Final residual = 7.30149e-08, No Iterations 4
DICPCG:  Solving for p, Initial residual = 0.00464259, Final residual = 9.10632e-08, No Iterations 148
time step continuity errors : sum local = 2.58802e-12, global = -1.85589e-14, cumulative = 1.39043e-13
DICPCG:  Solving for p, Initial residual = 0.00156758, Final residual = 9.91458e-08, No Iterations 139
time step continuity errors : sum local = 2.79863e-12, global = 4.47073e-14, cumulative = 1.83751e-13
ExecutionTime = 2.76 s  ClockTime = 3 s

Time = 0.48

Courant Number mean: 0.133964 max: 0.220168
smoothSolver:  Solving for Ux, Initial residual = 0.00248977, Final residual = 7.57445e-08, No Iterations 4
smoothSolver:  Solving for Uy, Initial residual = 0.00319629, Final residual = 7.05577e-08, No Iterations 4
DICPCG:  Solving for p, Initial residual = 0.00455477, Final residual = 9.60496e-08, No Iterations 147
time step continuity errors : sum local = 2.71256e-12, global = -3.15571e-14, cumulative = 1.52194e-13
DICPCG:  Solving for p, Initial residual = 0.00153264, Final residual = 9.99871e-08, No Iterations 138
time step continuity errors : sum local = 2.80526e-12, global = 4.90623e-14, cumulative = 2.01256e-13
ExecutionTime = 2.81 s  ClockTime = 3 s

Time = 0.49

Courant Number mean: 0.133961 max: 0.219772
smoothSolver:  Solving for Ux, Initial residual = 0.00245578, Final residual = 7.3178e-08, No Iterations 4
smoothSolver:  Solving for Uy, Initial residual = 0.00316308, Final residual = 6.82215e-08, No Iterations 4
DICPCG:  Solving for p, Initial residual = 0.00447153, Final residual = 9.83478e-08, No Iterations 146
time step continuity errors : sum local = 2.76051e-12, global = -4.92833e-14, cumulative = 1.51973e-13
DICPCG:  Solving for p, Initial residual = 0.00150067, Final residual = 9.42305e-08, No Iterations 138
time step continuity errors : sum local = 2.62828e-12, global = 4.77557e-14, cumulative = 1.99728e-13
ExecutionTime = 2.85 s  ClockTime = 3 s

Time = 0.5

Courant Number mean: 0.133957 max: 0.219378
smoothSolver:  Solving for Ux, Initial residual = 0.00242297, Final residual = 7.07454e-08, No Iterations 4
smoothSolver:  Solving for Uy, Initial residual = 0.00313136, Final residual = 6.60028e-08, No Iterations 4
DICPCG:  Solving for p, Initial residual = 0.00442673, Final residual = 9.37802e-08, No Iterations 146
time step continuity errors : sum local = 2.61694e-12, global = -4.92532e-14, cumulative = 1.50475e-13
DICPCG:  Solving for p, Initial residual = 0.00146777, Final residual = 9.1825e-08, No Iterations 138
time step continuity errors : sum local = 2.5468e-12, global = 4.6549e-14, cumulative = 1.97024e-13
ExecutionTime = 2.91 s  ClockTime = 3 s

Time = 0.51

Courant Number mean: 0.133954 max: 0.218985
smoothSolver:  Solving for Ux, Initial residual = 0.00239147, Final residual = 6.84313e-08, No Iterations 4
smoothSolver:  Solving for Uy, Initial residual = 0.00310037, Final residual = 6.38928e-08, No Iterations 4
DICPCG:  Solving for p, Initial residual = 0.00442805, Final residual = 8.76919e-08, No Iterations 146
time step continuity errors : sum local = 2.43327e-12, global = -4.79963e-14, cumulative = 1.49028e-13
DICPCG:  Solving for p, Initial residual = 0.00143312, Final residual = 9.85874e-08, No Iterations 137
time step continuity errors : sum local = 2.71965e-12, global = 5.27374e-14, cumulative = 2.01765e-13
ExecutionTime = 2.95 s  ClockTime = 3 s

Time = 0.52

Courant Number mean: 0.133951 max: 0.218594
smoothSolver:  Solving for Ux, Initial residual = 0.00236146, Final residual = 6.62242e-08, No Iterations 4
smoothSolver:  Solving for Uy, Initial residual = 0.00307045, Final residual = 6.18846e-08, No Iterations 4
DICPCG:  Solving for p, Initial residual = 0.00450132, Final residual = 9.61434e-08, No Iterations 145
time step continuity errors : sum local = 2.65336e-12, global = -6.06089e-14, cumulative = 1.41156e-13
DICPCG:  Solving for p, Initial residual = 0.00144245, Final residual = 9.49567e-08, No Iterations 137
time step continuity errors : sum local = 2.60582e-12, global = 5.22787e-14, cumulative = 1.93435e-13
ExecutionTime = 3 s  ClockTime = 3 s

Time = 0.53

Courant Number mean: 0.133948 max: 0.218206
smoothSolver:  Solving for Ux, Initial residual = 0.00233244, Final residual = 6.41377e-08, No Iterations 4
smoothSolver:  Solving for Uy, Initial residual = 0.00304133, Final residual = 5.99742e-08, No Iterations 4
DICPCG:  Solving for p, Initial residual = 0.00429965, Final residual = 9.12533e-08, No Iterations 145
time step continuity errors : sum local = 2.50519e-12, global = -5.54223e-14, cumulative = 1.38013e-13
DICPCG:  Solving for p, Initial residual = 0.00139025, Final residual = 9.78491e-08, No Iterations 136
time step continuity errors : sum local = 2.67163e-12, global = 6.41995e-14, cumulative = 2.02212e-13
ExecutionTime = 3.05 s  ClockTime = 3 s

Time = 0.54

Courant Number mean: 0.133946 max: 0.21782
smoothSolver:  Solving for Ux, Initial residual = 0.00230435, Final residual = 6.21408e-08, No Iterations 4
smoothSolver:  Solving for Uy, Initial residual = 0.00301356, Final residual = 5.81601e-08, No Iterations 4
DICPCG:  Solving for p, Initial residual = 0.00416642, Final residual = 8.66166e-08, No Iterations 145
time step continuity errors : sum local = 2.3659e-12, global = -5.11262e-14, cumulative = 1.51086e-13
DICPCG:  Solving for p, Initial residual = 0.00136227, Final residual = 9.58844e-08, No Iterations 136
time step continuity errors : sum local = 2.60525e-12, global = 6.13096e-14, cumulative = 2.12395e-13
ExecutionTime = 3.1 s  ClockTime = 3 s

Time = 0.55

Courant Number mean: 0.133943 max: 0.217436
smoothSolver:  Solving for Ux, Initial residual = 0.00227724, Final residual = 6.02379e-08, No Iterations 4
smoothSolver:  Solving for Uy, Initial residual = 0.00298653, Final residual = 5.64235e-08, No Iterations 4
DICPCG:  Solving for p, Initial residual = 0.00413052, Final residual = 9.45192e-08, No Iterations 144
time step continuity errors : sum local = 2.5691e-12, global = -5.62172e-14, cumulative = 1.56178e-13
DICPCG:  Solving for p, Initial residual = 0.00133964, Final residual = 9.33458e-08, No Iterations 136
time step continuity errors : sum local = 2.52426e-12, global = 6.06103e-14, cumulative = 2.16789e-13
ExecutionTime = 3.15 s  ClockTime = 3 s

Time = 0.56

Courant Number mean: 0.133941 max: 0.217056
smoothSolver:  Solving for Ux, Initial residual = 0.00225087, Final residual = 5.84161e-08, No Iterations 4
smoothSolver:  Solving for Uy, Initial residual = 0.00296067, Final residual = 5.47667e-08, No Iterations 4
DICPCG:  Solving for p, Initial residual = 0.00410743, Final residual = 9.33694e-08, No Iterations 144
time step continuity errors : sum local = 2.52583e-12, global = -5.00168e-14, cumulative = 1.66772e-13
DICPCG:  Solving for p, Initial residual = 0.00131674, Final residual = 9.86989e-08, No Iterations 135
time step continuity errors : sum local = 2.65687e-12, global = 6.921e-14, cumulative = 2.35982e-13
ExecutionTime = 3.19 s  ClockTime = 3 s

Time = 0.57

Courant Number mean: 0.133939 max: 0.216768
smoothSolver:  Solving for Ux, Initial residual = 0.00222541, Final residual = 5.66804e-08, No Iterations 4
smoothSolver:  Solving for Uy, Initial residual = 0.0029353, Final residual = 5.31837e-08, No Iterations 4
DICPCG:  Solving for p, Initial residual = 0.00421487, Final residual = 9.15973e-08, No Iterations 144
time step continuity errors : sum local = 2.46705e-12, global = -4.53413e-14, cumulative = 1.90641e-13
DICPCG:  Solving for p, Initial residual = 0.00130119, Final residual = 9.97229e-08, No Iterations 134
time step continuity errors : sum local = 2.67364e-12, global = 6.73905e-14, cumulative = 2.58031e-13
ExecutionTime = 3.24 s  ClockTime = 3 s

Time = 0.58

Courant Number mean: 0.133936 max: 0.2166
smoothSolver:  Solving for Ux, Initial residual = 0.00220067, Final residual = 5.50239e-08, No Iterations 4
smoothSolver:  Solving for Uy, Initial residual = 0.00291059, Final residual = 5.16767e-08, No Iterations 4
DICPCG:  Solving for p, Initial residual = 0.0039707, Final residual = 8.53451e-08, No Iterations 144
time step continuity errors : sum local = 2.28903e-12, global = -3.05137e-14, cumulative = 2.27517e-13
DICPCG:  Solving for p, Initial residual = 0.00126872, Final residual = 9.8756e-08, No Iterations 134
time step continuity errors : sum local = 2.63644e-12, global = 6.56234e-14, cumulative = 2.93141e-13
ExecutionTime = 3.29 s  ClockTime = 3 s

Time = 0.59

Courant Number mean: 0.133934 max: 0.21643
smoothSolver:  Solving for Ux, Initial residual = 0.00217655, Final residual = 5.34297e-08, No Iterations 4
smoothSolver:  Solving for Uy, Initial residual = 0.00288668, Final residual = 5.02299e-08, No Iterations 4
DICPCG:  Solving for p, Initial residual = 0.00433728, Final residual = 8.53864e-08, No Iterations 144
time step continuity errors : sum local = 2.27945e-12, global = -8.30363e-15, cumulative = 2.84837e-13
DICPCG:  Solving for p, Initial residual = 0.00128102, Final residual = 9.60454e-08, No Iterations 135
time step continuity errors : sum local = 2.55137e-12, global = 6.34122e-14, cumulative = 3.48249e-13
ExecutionTime = 3.33 s  ClockTime = 4 s

Time = 0.6

Courant Number mean: 0.133933 max: 0.216258
smoothSolver:  Solving for Ux, Initial residual = 0.00215304, Final residual = 5.18963e-08, No Iterations 4
smoothSolver:  Solving for Uy, Initial residual = 0.00286332, Final residual = 4.8834e-08, No Iterations 4
DICPCG:  Solving for p, Initial residual = 0.00387378, Final residual = 9.74603e-08, No Iterations 143
time step continuity errors : sum local = 2.58984e-12, global = -2.8167e-14, cumulative = 3.20082e-13
DICPCG:  Solving for p, Initial residual = 0.00122808, Final residual = 9.6473e-08, No Iterations 129
time step continuity errors : sum local = 2.55249e-12, global = -3.60591e-15, cumulative = 3.16476e-13
ExecutionTime = 3.39 s  ClockTime = 4 s

Time = 0.61

Courant Number mean: 0.133931 max: 0.216084
smoothSolver:  Solving for Ux, Initial residual = 0.00213044, Final residual = 5.0439e-08, No Iterations 4
smoothSolver:  Solving for Uy, Initial residual = 0.00284091, Final residual = 4.75097e-08, No Iterations 4
DICPCG:  Solving for p, Initial residual = 0.00381493, Final residual = 9.16221e-08, No Iterations 143
time step continuity errors : sum local = 2.42484e-12, global = -2.66067e-14, cumulative = 2.8987e-13
DICPCG:  Solving for p, Initial residual = 0.00120683, Final residual = 9.8752e-08, No Iterations 127
time step continuity errors : sum local = 2.60242e-12, global = -2.22333e-14, cumulative = 2.67636e-13
ExecutionTime = 3.43 s  ClockTime = 4 s

Time = 0.62

Courant Number mean: 0.133929 max: 0.215909
smoothSolver:  Solving for Ux, Initial residual = 0.0021084, Final residual = 4.9042e-08, No Iterations 4
smoothSolver:  Solving for Uy, Initial residual = 0.00281897, Final residual = 4.62402e-08, No Iterations 4
DICPCG:  Solving for p, Initial residual = 0.00377896, Final residual = 9.61576e-08, No Iterations 142
time step continuity errors : sum local = 2.53479e-12, global = -4.46183e-14, cumulative = 2.23018e-13
DICPCG:  Solving for p, Initial residual = 0.00118383, Final residual = 9.80269e-08, No Iterations 127
time step continuity errors : sum local = 2.57346e-12, global = -1.94773e-14, cumulative = 2.03541e-13
ExecutionTime = 3.47 s  ClockTime = 4 s

Time = 0.63

Courant Number mean: 0.133927 max: 0.215732
smoothSolver:  Solving for Ux, Initial residual = 0.00208696, Final residual = 4.77005e-08, No Iterations 4
smoothSolver:  Solving for Uy, Initial residual = 0.00279709, Final residual = 4.50248e-08, No Iterations 4
DICPCG:  Solving for p, Initial residual = 0.00370716, Final residual = 8.84069e-08, No Iterations 142
time step continuity errors : sum local = 2.32154e-12, global = -4.59513e-14, cumulative = 1.57589e-13
DICPCG:  Solving for p, Initial residual = 0.00116554, Final residual = 9.44529e-08, No Iterations 127
time step continuity errors : sum local = 2.47039e-12, global = -1.73248e-14, cumulative = 1.40265e-13
ExecutionTime = 3.52 s  ClockTime = 4 s

Time = 0.64

Courant Number mean: 0.133926 max: 0.215555
smoothSolver:  Solving for Ux, Initial residual = 0.00206632, Final residual = 4.64169e-08, No Iterations 4
smoothSolver:  Solving for Uy, Initial residual = 0.00277572, Final residual = 4.38545e-08, No Iterations 4
DICPCG:  Solving for p, Initial residual = 0.00377205, Final residual = 8.29366e-08, No Iterations 142
time step continuity errors : sum local = 2.16976e-12, global = -4.20946e-14, cumulative = 9.817e-14
DICPCG:  Solving for p, Initial residual = 0.00114638, Final residual = 9.99435e-08, No Iterations 126
time step continuity errors : sum local = 2.60457e-12, global = -8.99832e-15, cumulative = 8.91717e-14
ExecutionTime = 3.57 s  ClockTime = 4 s

Time = 0.65

Courant Number mean: 0.133925 max: 0.215376
smoothSolver:  Solving for Ux, Initial residual = 0.00204639, Final residual = 4.5185e-08, No Iterations 4
smoothSolver:  Solving for Uy, Initial residual = 0.00275444, Final residual = 4.27256e-08, No Iterations 4
DICPCG:  Solving for p, Initial residual = 0.00379001, Final residual = 9.74791e-08, No Iterations 141
time step continuity errors : sum local = 2.54075e-12, global = -4.82045e-14, cumulative = 4.09672e-14
DICPCG:  Solving for p, Initial residual = 0.00112115, Final residual = 9.68301e-08, No Iterations 126
time step continuity errors : sum local = 2.51409e-12, global = -9.06201e-15, cumulative = 3.19052e-14
ExecutionTime = 3.61 s  ClockTime = 4 s

Time = 0.66

Courant Number mean: 0.133923 max: 0.215197
smoothSolver:  Solving for Ux, Initial residual = 0.00202698, Final residual = 4.39979e-08, No Iterations 4
smoothSolver:  Solving for Uy, Initial residual = 0.00273432, Final residual = 4.16518e-08, No Iterations 4
DICPCG:  Solving for p, Initial residual = 0.00374565, Final residual = 9.9616e-08, No Iterations 138
time step continuity errors : sum local = 2.58704e-12, global = -6.52131e-14, cumulative = -3.33079e-14
DICPCG:  Solving for p, Initial residual = 0.00113121, Final residual = 9.7769e-08, No Iterations 126
time step continuity errors : sum local = 2.52967e-12, global = -1.26471e-14, cumulative = -4.59551e-14
ExecutionTime = 3.66 s  ClockTime = 4 s

Time = 0.67

Courant Number mean: 0.133922 max: 0.215017
smoothSolver:  Solving for Ux, Initial residual = 0.00200812, Final residual = 4.287e-08, No Iterations 4
smoothSolver:  Solving for Uy, Initial residual = 0.00271504, Final residual = 4.06251e-08, No Iterations 4
DICPCG:  Solving for p, Initial residual = 0.00359974, Final residual = 9.41757e-08, No Iterations 137
time step continuity errors : sum local = 2.43722e-12, global = -6.8809e-14, cumulative = -1.14764e-13
DICPCG:  Solving for p, Initial residual = 0.00109346, Final residual = 9.15749e-08, No Iterations 127
time step continuity errors : sum local = 2.3614e-12, global = -2.51035e-14, cumulative = -1.39868e-13
ExecutionTime = 3.7 s  ClockTime = 4 s

Time = 0.68

Courant Number mean: 0.133921 max: 0.214837
smoothSolver:  Solving for Ux, Initial residual = 0.00198971, Final residual = 4.17731e-08, No Iterations 4
smoothSolver:  Solving for Uy, Initial residual = 0.00269653, Final residual = 3.96296e-08, No Iterations 4
DICPCG:  Solving for p, Initial residual = 0.00366456, Final residual = 8.86968e-08, No Iterations 137
time step continuity errors : sum local = 2.28768e-12, global = -7.1396e-14, cumulative = -2.11264e-13
DICPCG:  Solving for p, Initial residual = 0.00108206, Final residual = 9.95296e-08, No Iterations 125
time step continuity errors : sum local = 2.55817e-12, global = 5.42349e-14, cumulative = -1.57029e-13
ExecutionTime = 3.76 s  ClockTime = 4 s

Time = 0.69

Courant Number mean: 0.13392 max: 0.214656
smoothSolver:  Solving for Ux, Initial residual = 0.00197172, Final residual = 4.07206e-08, No Iterations 4
smoothSolver:  Solving for Uy, Initial residual = 0.00267809, Final residual = 3.86752e-08, No Iterations 4
DICPCG:  Solving for p, Initial residual = 0.00357, Final residual = 8.51535e-08, No Iterations 137
time step continuity errors : sum local = 2.18931e-12, global = -6.12823e-14, cumulative = -2.18311e-13
DICPCG:  Solving for p, Initial residual = 0.0010619, Final residual = 9.68577e-08, No Iterations 125
time step continuity errors : sum local = 2.48195e-12, global = 5.20101e-14, cumulative = -1.66301e-13
ExecutionTime = 3.8 s  ClockTime = 4 s

Time = 0.7

Courant Number mean: 0.133919 max: 0.214475
smoothSolver:  Solving for Ux, Initial residual = 0.00195416, Final residual = 3.9707e-08, No Iterations 4
smoothSolver:  Solving for Uy, Initial residual = 0.00266018, Final residual = 3.77502e-08, No Iterations 4
DICPCG:  Solving for p, Initial residual = 0.00383651, Final residual = 8.28302e-08, No Iterations 137
time step continuity errors : sum local = 2.12285e-12, global = -6.24292e-14, cumulative = -2.2873e-13
DICPCG:  Solving for p, Initial residual = 0.00107179, Final residual = 9.87849e-08, No Iterations 126
time step continuity errors : sum local = 2.52299e-12, global = 2.37737e-15, cumulative = -2.26353e-13
ExecutionTime = 3.84 s  ClockTime = 4 s

Time = 0.71

Courant Number mean: 0.133919 max: 0.214294
smoothSolver:  Solving for Ux, Initial residual = 0.00193693, Final residual = 3.87143e-08, No Iterations 4
smoothSolver:  Solving for Uy, Initial residual = 0.00264187, Final residual = 3.68505e-08, No Iterations 4
DICPCG:  Solving for p, Initial residual = 0.00341354, Final residual = 9.32164e-08, No Iterations 137
time step continuity errors : sum local = 2.38133e-12, global = -4.20557e-15, cumulative = -2.30558e-13
DICPCG:  Solving for p, Initial residual = 0.00102736, Final residual = 9.7841e-08, No Iterations 121
time step continuity errors : sum local = 2.49145e-12, global = 1.03876e-14, cumulative = -2.20171e-13
ExecutionTime = 3.89 s  ClockTime = 4 s

Time = 0.72

Courant Number mean: 0.133918 max: 0.214112
smoothSolver:  Solving for Ux, Initial residual = 0.00192012, Final residual = 3.77716e-08, No Iterations 4
smoothSolver:  Solving for Uy, Initial residual = 0.00262399, Final residual = 3.59939e-08, No Iterations 4
DICPCG:  Solving for p, Initial residual = 0.00338768, Final residual = 9.08102e-08, No Iterations 140
time step continuity errors : sum local = 2.3128e-12, global = -1.48199e-14, cumulative = -2.34991e-13
DICPCG:  Solving for p, Initial residual = 0.00101449, Final residual = 9.20191e-08, No Iterations 121
time step continuity errors : sum local = 2.33615e-12, global = 8.24398e-15, cumulative = -2.26747e-13
ExecutionTime = 3.94 s  ClockTime = 4 s

Time = 0.73

Courant Number mean: 0.133917 max: 0.213931
smoothSolver:  Solving for Ux, Initial residual = 0.00190367, Final residual = 3.6864e-08, No Iterations 4
smoothSolver:  Solving for Uy, Initial residual = 0.00260651, Final residual = 3.51674e-08, No Iterations 4
DICPCG:  Solving for p, Initial residual = 0.00333742, Final residual = 9.34617e-08, No Iterations 140
time step continuity errors : sum local = 2.37316e-12, global = -1.15481e-14, cumulative = -2.38295e-13
DICPCG:  Solving for p, Initial residual = 0.000996338, Final residual = 9.9215e-08, No Iterations 120
time step continuity errors : sum local = 2.51148e-12, global = 1.59891e-15, cumulative = -2.36696e-13
ExecutionTime = 3.98 s  ClockTime = 4 s

Time = 0.74

Courant Number mean: 0.133917 max: 0.21375
smoothSolver:  Solving for Ux, Initial residual = 0.00188759, Final residual = 3.59891e-08, No Iterations 4
smoothSolver:  Solving for Uy, Initial residual = 0.00258977, Final residual = 3.43704e-08, No Iterations 4
DICPCG:  Solving for p, Initial residual = 0.00330857, Final residual = 9.44682e-08, No Iterations 140
time step continuity errors : sum local = 2.39182e-12, global = -3.72264e-15, cumulative = -2.40418e-13
DICPCG:  Solving for p, Initial residual = 0.000982242, Final residual = 9.60178e-08, No Iterations 120
time step continuity errors : sum local = 2.4238e-12, global = 2.71003e-15, cumulative = -2.37708e-13
ExecutionTime = 4.03 s  ClockTime = 4 s

Time = 0.75

Courant Number mean: 0.133916 max: 0.213569
smoothSolver:  Solving for Ux, Initial residual = 0.00187186, Final residual = 3.51429e-08, No Iterations 4
smoothSolver:  Solving for Uy, Initial residual = 0.00257333, Final residual = 3.36014e-08, No Iterations 4
DICPCG:  Solving for p, Initial residual = 0.00327999, Final residual = 9.11798e-08, No Iterations 140
time step continuity errors : sum local = 2.30214e-12, global = 3.80205e-15, cumulative = -2.33906e-13
DICPCG:  Solving for p, Initial residual = 0.000967666, Final residual = 9.20759e-08, No Iterations 120
time step continuity errors : sum local = 2.31801e-12, global = 3.91548e-15, cumulative = -2.29991e-13
ExecutionTime = 4.07 s  ClockTime = 4 s

Time = 0.76

Courant Number mean: 0.133916 max: 0.213387
smoothSolver:  Solving for Ux, Initial residual = 0.0018565, Final residual = 3.43257e-08, No Iterations 4
smoothSolver:  Solving for Uy, Initial residual = 0.00255708, Final residual = 3.28588e-08, No Iterations 4
DICPCG:  Solving for p, Initial residual = 0.00324757, Final residual = 9.89918e-08, No Iterations 140
time step continuity errors : sum local = 2.49267e-12, global = 1.15866e-14, cumulative = -2.18404e-13
DICPCG:  Solving for p, Initial residual = 0.000952986, Final residual = 9.01969e-08, No Iterations 120
time step continuity errors : sum local = 2.2648e-12, global = 4.17466e-15, cumulative = -2.1423e-13
ExecutionTime = 4.12 s  ClockTime = 4 s

Time = 0.77

Courant Number mean: 0.133916 max: 0.213207
smoothSolver:  Solving for Ux, Initial residual = 0.00184148, Final residual = 3.3539e-08, No Iterations 4
smoothSolver:  Solving for Uy, Initial residual = 0.00254106, Final residual = 3.21436e-08, No Iterations 4
DICPCG:  Solving for p, Initial residual = 0.00323401, Final residual = 8.29271e-08, No Iterations 141
time step continuity errors : sum local = 2.0827e-12, global = 1.99842e-14, cumulative = -1.94245e-13
DICPCG:  Solving for p, Initial residual = 0.000940581, Final residual = 9.86892e-08, No Iterations 119
time step continuity errors : sum local = 2.47174e-12, global = 1.40276e-15, cumulative = -1.92843e-13
ExecutionTime = 4.16 s  ClockTime = 4 s

Time = 0.78

Courant Number mean: 0.133916 max: 0.213026
smoothSolver:  Solving for Ux, Initial residual = 0.00182693, Final residual = 3.27776e-08, No Iterations 4
smoothSolver:  Solving for Uy, Initial residual = 0.00252531, Final residual = 3.14523e-08, No Iterations 4
DICPCG:  Solving for p, Initial residual = 0.00321475, Final residual = 8.38695e-08, No Iterations 141
time step continuity errors : sum local = 2.10102e-12, global = 2.4027e-14, cumulative = -1.68816e-13
DICPCG:  Solving for p, Initial residual = 0.000926961, Final residual = 9.56645e-08, No Iterations 119
time step continuity errors : sum local = 2.39004e-12, global = 2.70377e-15, cumulative = -1.66112e-13
ExecutionTime = 4.2 s  ClockTime = 4 s

Time = 0.79

Courant Number mean: 0.133915 max: 0.212846
smoothSolver:  Solving for Ux, Initial residual = 0.00181274, Final residual = 3.20418e-08, No Iterations 4
smoothSolver:  Solving for Uy, Initial residual = 0.00250957, Final residual = 3.07839e-08, No Iterations 4
DICPCG:  Solving for p, Initial residual = 0.00326527, Final residual = 8.49538e-08, No Iterations 141
time step continuity errors : sum local = 2.1232e-12, global = 2.67089e-14, cumulative = -1.39403e-13
DICPCG:  Solving for p, Initial residual = 0.00091647, Final residual = 9.45661e-08, No Iterations 119
time step continuity errors : sum local = 2.35756e-12, global = 3.64798e-15, cumulative = -1.35755e-13
ExecutionTime = 4.25 s  ClockTime = 4 s

Time = 0.8

Courant Number mean: 0.133915 max: 0.212666
smoothSolver:  Solving for Ux, Initial residual = 0.00179892, Final residual = 3.13296e-08, No Iterations 4
smoothSolver:  Solving for Uy, Initial residual = 0.00249395, Final residual = 3.01357e-08, No Iterations 4
DICPCG:  Solving for p, Initial residual = 0.00340804, Final residual = 9.98736e-08, No Iterations 140
time step continuity errors : sum local = 2.49094e-12, global = 2.62546e-14, cumulative = -1.095e-13
DICPCG:  Solving for p, Initial residual = 0.000912891, Final residual = 9.05229e-08, No Iterations 119
time step continuity errors : sum local = 2.25257e-12, global = 4.28909e-15, cumulative = -1.05211e-13
ExecutionTime = 4.3 s  ClockTime = 4 s

Time = 0.81

Courant Number mean: 0.133915 max: 0.212487
smoothSolver:  Solving for Ux, Initial residual = 0.00178547, Final residual = 3.06486e-08, No Iterations 4
smoothSolver:  Solving for Uy, Initial residual = 0.00247929, Final residual = 2.95158e-08, No Iterations 4
DICPCG:  Solving for p, Initial residual = 0.00347494, Final residual = 8.45407e-08, No Iterations 141
time step continuity errors : sum local = 2.1034e-12, global = 2.6927e-14, cumulative = -7.82843e-14
DICPCG:  Solving for p, Initial residual = 0.000911956, Final residual = 9.93565e-08, No Iterations 120
time step continuity errors : sum local = 2.46475e-12, global = 1.14966e-14, cumulative = -6.67877e-14
ExecutionTime = 4.34 s  ClockTime = 5 s

Time = 0.82

Courant Number mean: 0.133915 max: 0.212308
smoothSolver:  Solving for Ux, Initial residual = 0.0017722, Final residual = 2.99705e-08, No Iterations 4
smoothSolver:  Solving for Uy, Initial residual = 0.00246449, Final residual = 2.88997e-08, No Iterations 4
DICPCG:  Solving for p, Initial residual = 0.00318608, Final residual = 9.831e-08, No Iterations 140
time step continuity errors : sum local = 2.43938e-12, global = 2.37896e-14, cumulative = -4.29981e-14
DICPCG:  Solving for p, Initial residual = 0.000881237, Final residual = 9.45815e-08, No Iterations 119
time step continuity errors : sum local = 2.34104e-12, global = 7.98045e-15, cumulative = -3.50177e-14
ExecutionTime = 4.39 s  ClockTime = 5 s

Time = 0.83

Courant Number mean: 0.133916 max: 0.212129
smoothSolver:  Solving for Ux, Initial residual = 0.00175918, Final residual = 2.9322e-08, No Iterations 4
smoothSolver:  Solving for Uy, Initial residual = 0.00244999, Final residual = 2.83095e-08, No Iterations 4
DICPCG:  Solving for p, Initial residual = 0.00307337, Final residual = 9.65812e-08, No Iterations 140
time step continuity errors : sum local = 2.39108e-12, global = 2.29949e-14, cumulative = -1.20227e-14
DICPCG:  Solving for p, Initial residual = 0.000862199, Final residual = 9.30529e-08, No Iterations 119
time step continuity errors : sum local = 2.29823e-12, global = 8.62315e-15, cumulative = -3.3996e-15
ExecutionTime = 4.43 s  ClockTime = 5 s

Time = 0.84

Courant Number mean: 0.133916 max: 0.211951
smoothSolver:  Solving for Ux, Initial residual = 0.00174638, Final residual = 2.86956e-08, No Iterations 4
smoothSolver:  Solving for Uy, Initial residual = 0.00243597, Final residual = 2.77399e-08, No Iterations 4
DICPCG:  Solving for p, Initial residual = 0.00308158, Final residual = 9.37121e-08, No Iterations 140
time step continuity errors : sum local = 2.31492e-12, global = 1.79772e-14, cumulative = 1.45776e-14
DICPCG:  Solving for p, Initial residual = 0.000849962, Final residual = 9.80299e-08, No Iterations 114
time step continuity errors : sum local = 2.41587e-12, global = -2.05094e-14, cumulative = -5.93175e-15
ExecutionTime = 4.48 s  ClockTime = 5 s

Time = 0.85

Courant Number mean: 0.133916 max: 0.211774
smoothSolver:  Solving for Ux, Initial residual = 0.00173383, Final residual = 2.80897e-08, No Iterations 4
smoothSolver:  Solving for Uy, Initial residual = 0.00242184, Final residual = 2.71858e-08, No Iterations 4
DICPCG:  Solving for p, Initial residual = 0.00305701, Final residual = 8.93499e-08, No Iterations 140
time step continuity errors : sum local = 2.20234e-12, global = 1.72519e-14, cumulative = 1.13201e-14
DICPCG:  Solving for p, Initial residual = 0.000835711, Final residual = 9.53028e-08, No Iterations 114
time step continuity errors : sum local = 2.34362e-12, global = -2.04876e-14, cumulative = -9.16751e-15
ExecutionTime = 4.52 s  ClockTime = 5 s

Time = 0.86

Courant Number mean: 0.133916 max: 0.211597
smoothSolver:  Solving for Ux, Initial residual = 0.00172152, Final residual = 2.74991e-08, No Iterations 4
smoothSolver:  Solving for Uy, Initial residual = 0.00240782, Final residual = 2.66518e-08, No Iterations 4
DICPCG:  Solving for p, Initial residual = 0.00305419, Final residual = 9.79875e-08, No Iterations 139
time step continuity errors : sum local = 2.41006e-12, global = 1.1188e-14, cumulative = 2.02054e-15
DICPCG:  Solving for p, Initial residual = 0.000840845, Final residual = 9.74707e-08, No Iterations 114
time step continuity errors : sum local = 2.39187e-12, global = -2.50222e-14, cumulative = -2.30017e-14
ExecutionTime = 4.57 s  ClockTime = 5 s

Time = 0.87

Courant Number mean: 0.133917 max: 0.211421
smoothSolver:  Solving for Ux, Initial residual = 0.00170942, Final residual = 2.69399e-08, No Iterations 4
smoothSolver:  Solving for Uy, Initial residual = 0.00239442, Final residual = 2.6136e-08, No Iterations 4
DICPCG:  Solving for p, Initial residual = 0.00298605, Final residual = 9.44077e-08, No Iterations 139
time step continuity errors : sum local = 2.31715e-12, global = 6.1611e-15, cumulative = -1.68406e-14
DICPCG:  Solving for p, Initial residual = 0.000822173, Final residual = 9.98315e-08, No Iterations 114
time step continuity errors : sum local = 2.44483e-12, global = -2.19176e-14, cumulative = -3.87582e-14
ExecutionTime = 4.61 s  ClockTime = 5 s

Time = 0.88

Courant Number mean: 0.133917 max: 0.211245
smoothSolver:  Solving for Ux, Initial residual = 0.00169754, Final residual = 2.63913e-08, No Iterations 4
smoothSolver:  Solving for Uy, Initial residual = 0.00238127, Final residual = 2.56302e-08, No Iterations 4
DICPCG:  Solving for p, Initial residual = 0.0029137, Final residual = 9.80117e-08, No Iterations 138
time step continuity errors : sum local = 2.40072e-12, global = -6.79193e-15, cumulative = -4.55501e-14
DICPCG:  Solving for p, Initial residual = 0.000804613, Final residual = 9.85395e-08, No Iterations 117
time step continuity errors : sum local = 2.40841e-12, global = 7.55402e-15, cumulative = -3.79961e-14
ExecutionTime = 4.65 s  ClockTime = 5 s

Time = 0.89

Courant Number mean: 0.133918 max: 0.211171
smoothSolver:  Solving for Ux, Initial residual = 0.00168586, Final residual = 2.58556e-08, No Iterations 4
smoothSolver:  Solving for Uy, Initial residual = 0.00236834, Final residual = 2.51437e-08, No Iterations 4
DICPCG:  Solving for p, Initial residual = 0.00288872, Final residual = 9.40438e-08, No Iterations 138
time step continuity errors : sum local = 2.29898e-12, global = -6.62464e-15, cumulative = -4.46207e-14
DICPCG:  Solving for p, Initial residual = 0.000794042, Final residual = 9.46321e-08, No Iterations 118
time step continuity errors : sum local = 2.30844e-12, global = 9.98384e-15, cumulative = -3.46369e-14
ExecutionTime = 4.7 s  ClockTime = 5 s

Time = 0.9

Courant Number mean: 0.133918 max: 0.211097
smoothSolver:  Solving for Ux, Initial residual = 0.00167433, Final residual = 2.5335e-08, No Iterations 4
smoothSolver:  Solving for Uy, Initial residual = 0.0023554, Final residual = 2.46714e-08, No Iterations 4
DICPCG:  Solving for p, Initial residual = 0.00292521, Final residual = 9.94466e-08, No Iterations 137
time step continuity errors : sum local = 2.42636e-12, global = -1.66454e-14, cumulative = -5.12822e-14
DICPCG:  Solving for p, Initial residual = 0.000785077, Final residual = 9.25319e-08, No Iterations 118
time step continuity errors : sum local = 2.25295e-12, global = 9.36866e-15, cumulative = -4.19136e-14
ExecutionTime = 4.74 s  ClockTime = 5 s

Time = 0.91

Courant Number mean: 0.133919 max: 0.211023
smoothSolver:  Solving for Ux, Initial residual = 0.00166297, Final residual = 2.48315e-08, No Iterations 4
smoothSolver:  Solving for Uy, Initial residual = 0.0023426, Final residual = 2.42141e-08, No Iterations 4
DICPCG:  Solving for p, Initial residual = 0.00296937, Final residual = 8.67531e-08, No Iterations 138
time step continuity errors : sum local = 2.11281e-12, global = -8.96839e-15, cumulative = -5.0882e-14
DICPCG:  Solving for p, Initial residual = 0.000780697, Final residual = 9.40742e-08, No Iterations 118
time step continuity errors : sum local = 2.2866e-12, global = 1.18408e-14, cumulative = -3.90412e-14
ExecutionTime = 4.79 s  ClockTime = 5 s

Time = 0.92

Courant Number mean: 0.13392 max: 0.210948
smoothSolver:  Solving for Ux, Initial residual = 0.0016519, Final residual = 2.43409e-08, No Iterations 4
smoothSolver:  Solving for Uy, Initial residual = 0.00232974, Final residual = 2.37677e-08, No Iterations 4
DICPCG:  Solving for p, Initial residual = 0.00296081, Final residual = 9.41654e-08, No Iterations 137
time step continuity errors : sum local = 2.28956e-12, global = -1.56777e-14, cumulative = -5.47189e-14
DICPCG:  Solving for p, Initial residual = 0.000769412, Final residual = 9.14511e-08, No Iterations 118
time step continuity errors : sum local = 2.21942e-12, global = 1.2082e-14, cumulative = -4.26369e-14
ExecutionTime = 4.84 s  ClockTime = 5 s

Time = 0.93

Courant Number mean: 0.13392 max: 0.210871
smoothSolver:  Solving for Ux, Initial residual = 0.0016411, Final residual = 2.38652e-08, No Iterations 4
smoothSolver:  Solving for Uy, Initial residual = 0.00231702, Final residual = 2.33365e-08, No Iterations 4
DICPCG:  Solving for p, Initial residual = 0.00314115, Final residual = 9.18279e-08, No Iterations 138
time step continuity errors : sum local = 2.22858e-12, global = -3.84458e-14, cumulative = -8.10827e-14
DICPCG:  Solving for p, Initial residual = 0.000777905, Final residual = 9.19387e-08, No Iterations 119
time step continuity errors : sum local = 2.22631e-12, global = -3.16477e-14, cumulative = -1.1273e-13
ExecutionTime = 4.88 s  ClockTime = 5 s

Time = 0.94

Courant Number mean: 0.133921 max: 0.210794
smoothSolver:  Solving for Ux, Initial residual = 0.00163054, Final residual = 2.33975e-08, No Iterations 4
smoothSolver:  Solving for Uy, Initial residual = 0.00230403, Final residual = 2.29083e-08, No Iterations 4
DICPCG:  Solving for p, Initial residual = 0.0027964, Final residual = 9.2342e-08, No Iterations 137
time step continuity errors : sum local = 2.23658e-12, global = -2.59962e-14, cumulative = -1.38727e-13
DICPCG:  Solving for p, Initial residual = 0.00074613, Final residual = 9.66651e-08, No Iterations 118
time step continuity errors : sum local = 2.33678e-12, global = 2.86799e-14, cumulative = -1.10047e-13
ExecutionTime = 4.92 s  ClockTime = 5 s

Time = 0.95

Courant Number mean: 0.133922 max: 0.210716
smoothSolver:  Solving for Ux, Initial residual = 0.00162017, Final residual = 2.29481e-08, No Iterations 4
smoothSolver:  Solving for Uy, Initial residual = 0.00229156, Final residual = 2.24986e-08, No Iterations 4
DICPCG:  Solving for p, Initial residual = 0.00274852, Final residual = 8.93694e-08, No Iterations 137
time step continuity errors : sum local = 2.16086e-12, global = -2.60612e-14, cumulative = -1.36108e-13
DICPCG:  Solving for p, Initial residual = 0.000735187, Final residual = 8.66389e-08, No Iterations 119
time step continuity errors : sum local = 2.09086e-12, global = 4.71206e-14, cumulative = -8.89873e-14
ExecutionTime = 4.97 s  ClockTime = 5 s

Time = 0.96

Courant Number mean: 0.133923 max: 0.210636
smoothSolver:  Solving for Ux, Initial residual = 0.00161002, Final residual = 2.25109e-08, No Iterations 4
smoothSolver:  Solving for Uy, Initial residual = 0.00227953, Final residual = 2.20999e-08, No Iterations 4
DICPCG:  Solving for p, Initial residual = 0.00274796, Final residual = 8.88433e-08, No Iterations 137
time step continuity errors : sum local = 2.14443e-12, global = -2.697e-14, cumulative = -1.15957e-13
DICPCG:  Solving for p, Initial residual = 0.000729305, Final residual = 9.82706e-08, No Iterations 119
time step continuity errors : sum local = 2.36749e-12, global = -2.36084e-14, cumulative = -1.39566e-13
ExecutionTime = 5.01 s  ClockTime = 5 s

Time = 0.97

Courant Number mean: 0.133924 max: 0.210556
smoothSolver:  Solving for Ux, Initial residual = 0.00160004, Final residual = 2.20855e-08, No Iterations 4
smoothSolver:  Solving for Uy, Initial residual = 0.00226796, Final residual = 2.17118e-08, No Iterations 4
DICPCG:  Solving for p, Initial residual = 0.00272363, Final residual = 8.64587e-08, No Iterations 137
time step continuity errors : sum local = 2.08333e-12, global = -2.43378e-14, cumulative = -1.63904e-13
DICPCG:  Solving for p, Initial residual = 0.0007172, Final residual = 8.69259e-08, No Iterations 119
time step continuity errors : sum local = 2.09072e-12, global = -2.44289e-14, cumulative = -1.88332e-13
ExecutionTime = 5.06 s  ClockTime = 5 s

Time = 0.98

Courant Number mean: 0.133925 max: 0.210475
smoothSolver:  Solving for Ux, Initial residual = 0.00159024, Final residual = 2.16711e-08, No Iterations 4
smoothSolver:  Solving for Uy, Initial residual = 0.0022565, Final residual = 2.13346e-08, No Iterations 4
DICPCG:  Solving for p, Initial residual = 0.00270359, Final residual = 8.35325e-08, No Iterations 137
time step continuity errors : sum local = 2.00956e-12, global = -2.35629e-14, cumulative = -2.11895e-13
DICPCG:  Solving for p, Initial residual = 0.000707796, Final residual = 9.62059e-08, No Iterations 118
time step continuity errors : sum local = 2.31035e-12, global = 7.00339e-15, cumulative = -2.04892e-13
ExecutionTime = 5.11 s  ClockTime = 5 s

Time = 0.99

Courant Number mean: 0.133926 max: 0.210394
smoothSolver:  Solving for Ux, Initial residual = 0.00158059, Final residual = 2.12711e-08, No Iterations 4
smoothSolver:  Solving for Uy, Initial residual = 0.00224505, Final residual = 2.09673e-08, No Iterations 4
DICPCG:  Solving for p, Initial residual = 0.00266171, Final residual = 8.45961e-08, No Iterations 137
time step continuity errors : sum local = 2.03198e-12, global = -2.23714e-14, cumulative = -2.27263e-13
DICPCG:  Solving for p, Initial residual = 0.00069901, Final residual = 9.58113e-08, No Iterations 118
time step continuity errors : sum local = 2.29729e-12, global = 7.81723e-15, cumulative = -2.19446e-13
ExecutionTime = 5.15 s  ClockTime = 5 s

Time = 1

Courant Number mean: 0.133927 max: 0.210311
smoothSolver:  Solving for Ux, Initial residual = 0.00157104, Final residual = 2.08773e-08, No Iterations 4
smoothSolver:  Solving for Uy, Initial residual = 0.00223388, Final residual = 2.06082e-08, No Iterations 4
DICPCG:  Solving for p, Initial residual = 0.00263161, Final residual = 8.32483e-08, No Iterations 137
time step continuity errors : sum local = 1.99653e-12, global = -1.9633e-14, cumulative = -2.39079e-13
DICPCG:  Solving for p, Initial residual = 0.000689759, Final residual = 9.40535e-08, No Iterations 118
time step continuity errors : sum local = 2.25178e-12, global = 1.08321e-14, cumulative = -2.28247e-13
ExecutionTime = 5.19 s  ClockTime = 5 s

Time = 1.01

Courant Number mean: 0.133928 max: 0.210228
smoothSolver:  Solving for Ux, Initial residual = 0.00156161, Final residual = 2.04959e-08, No Iterations 4
smoothSolver:  Solving for Uy, Initial residual = 0.00222279, Final residual = 2.026e-08, No Iterations 4
DICPCG:  Solving for p, Initial residual = 0.00262438, Final residual = 8.34641e-08, No Iterations 137
time step continuity errors : sum local = 1.9987e-12, global = -1.74741e-14, cumulative = -2.45721e-13
DICPCG:  Solving for p, Initial residual = 0.00068236, Final residual = 9.3981e-08, No Iterations 118
time step continuity errors : sum local = 2.24673e-12, global = 1.35925e-14, cumulative = -2.32129e-13
ExecutionTime = 5.23 s  ClockTime = 5 s

Time = 1.02

Courant Number mean: 0.133929 max: 0.210145
smoothSolver:  Solving for Ux, Initial residual = 0.00155233, Final residual = 2.01243e-08, No Iterations 4
smoothSolver:  Solving for Uy, Initial residual = 0.00221173, Final residual = 1.99207e-08, No Iterations 4
DICPCG:  Solving for p, Initial residual = 0.00263501, Final residual = 8.35425e-08, No Iterations 137
time step continuity errors : sum local = 1.99764e-12, global = -1.54974e-14, cumulative = -2.47626e-13
DICPCG:  Solving for p, Initial residual = 0.000675473, Final residual = 9.34987e-08, No Iterations 118
time step continuity errors : sum local = 2.23197e-12, global = 1.52671e-14, cumulative = -2.32359e-13
ExecutionTime = 5.29 s  ClockTime = 5 s

Time = 1.03

Courant Number mean: 0.13393 max: 0.21006
smoothSolver:  Solving for Ux, Initial residual = 0.00154324, Final residual = 1.97627e-08, No Iterations 4
smoothSolver:  Solving for Uy, Initial residual = 0.00220083, Final residual = 1.95906e-08, No Iterations 4
DICPCG:  Solving for p, Initial residual = 0.00278746, Final residual = 9.04525e-08, No Iterations 137
time step continuity errors : sum local = 2.16015e-12, global = -1.07111e-14, cumulative = -2.4307e-13
DICPCG:  Solving for p, Initial residual = 0.000676595, Final residual = 9.19471e-08, No Iterations 118
time step continuity errors : sum local = 2.19271e-12, global = 1.73497e-14, cumulative = -2.2572e-13
ExecutionTime = 5.33 s  ClockTime = 6 s

Time = 1.04

Courant Number mean: 0.133931 max: 0.209975
smoothSolver:  Solving for Ux, Initial residual = 0.00153427, Final residual = 1.94113e-08, No Iterations 4
smoothSolver:  Solving for Uy, Initial residual = 0.00219034, Final residual = 1.92704e-08, No Iterations 4
DICPCG:  Solving for p, Initial residual = 0.00281793, Final residual = 9.96788e-08, No Iterations 137
time step continuity errors : sum local = 2.37705e-12, global = -2.87426e-14, cumulative = -2.54463e-13
DICPCG:  Solving for p, Initial residual = 0.000675618, Final residual = 9.76514e-08, No Iterations 118
time step continuity errors : sum local = 2.32425e-12, global = 1.47552e-14, cumulative = -2.39708e-13
ExecutionTime = 5.37 s  ClockTime = 6 s

Time = 1.05

Courant Number mean: 0.133932 max: 0.20989
smoothSolver:  Solving for Ux, Initial residual = 0.00152541, Final residual = 1.90637e-08, No Iterations 4
smoothSolver:  Solving for Uy, Initial residual = 0.00217954, Final residual = 1.89515e-08, No Iterations 4
DICPCG:  Solving for p, Initial residual = 0.00259232, Final residual = 8.71338e-08, No Iterations 137
time step continuity errors : sum local = 2.07439e-12, global = -1.45267e-14, cumulative = -2.54235e-13
DICPCG:  Solving for p, Initial residual = 0.000653299, Final residual = 9.41938e-08, No Iterations 118
time step continuity errors : sum local = 2.23882e-12, global = 1.71733e-14, cumulative = -2.37061e-13
ExecutionTime = 5.41 s  ClockTime = 6 s

Time = 1.06

Courant Number mean: 0.133934 max: 0.209804
smoothSolver:  Solving for Ux, Initial residual = 0.00151666, Final residual = 1.87272e-08, No Iterations 4
smoothSolver:  Solving for Uy, Initial residual = 0.00216902, Final residual = 1.86441e-08, No Iterations 4
DICPCG:  Solving for p, Initial residual = 0.00251447, Final residual = 8.47237e-08, No Iterations 137
time step continuity errors : sum local = 2.0142e-12, global = -8.71006e-15, cumulative = -2.45771e-13
DICPCG:  Solving for p, Initial residual = 0.000641887, Final residual = 9.44994e-08, No Iterations 118
time step continuity errors : sum local = 2.24305e-12, global = 1.69749e-14, cumulative = -2.28797e-13
ExecutionTime = 5.46 s  ClockTime = 6 s

Time = 1.07

Courant Number mean: 0.133935 max: 0.209717
smoothSolver:  Solving for Ux, Initial residual = 0.00150807, Final residual = 1.84004e-08, No Iterations 4
smoothSolver:  Solving for Uy, Initial residual = 0.0021585, Final residual = 1.83452e-08, No Iterations 4
DICPCG:  Solving for p, Initial residual = 0.00248957, Final residual = 8.73214e-08, No Iterations 137
time step continuity errors : sum local = 2.07313e-12, global = -7.45495e-15, cumulative = -2.36251e-13
DICPCG:  Solving for p, Initial residual = 0.000634635, Final residual = 9.46849e-08, No Iterations 118
time step continuity errors : sum local = 2.24443e-12, global = 1.55535e-14, cumulative = -2.20698e-13
ExecutionTime = 5.51 s  ClockTime = 6 s

Time = 1.08

Courant Number mean: 0.133936 max: 0.209631
smoothSolver:  Solving for Ux, Initial residual = 0.00149958, Final residual = 1.80815e-08, No Iterations 4
smoothSolver:  Solving for Uy, Initial residual = 0.002148, Final residual = 1.80535e-08, No Iterations 4
DICPCG:  Solving for p, Initial residual = 0.00247274, Final residual = 8.50844e-08, No Iterations 137
time step continuity errors : sum local = 2.0173e-12, global = -4.66151e-15, cumulative = -2.25359e-13
DICPCG:  Solving for p, Initial residual = 0.000626534, Final residual = 9.23717e-08, No Iterations 118
time step continuity errors : sum local = 2.18669e-12, global = 1.27196e-14, cumulative = -2.1264e-13
ExecutionTime = 5.55 s  ClockTime = 6 s

Time = 1.09

Courant Number mean: 0.133937 max: 0.209543
[...]
time step continuity errors : sum local = 1.39211e-12, global = -2.62592e-13, cumulative = -7.52168e-10
ExecutionTime = 133.23 s  ClockTime = 136 s

Time = 49.74

Courant Number mean: 0.133773 max: 0.196868
smoothSolver:  Solving for Ux, Initial residual = 2.62022e-10, Final residual = 2.62022e-10, No Iterations 0
smoothSolver:  Solving for Uy, Initial residual = 6.46587e-10, Final residual = 6.46587e-10, No Iterations 0
DICPCG:  Solving for p, Initial residual = 1.0619e-07, Final residual = 5.97866e-08, No Iterations 1
time step continuity errors : sum local = 8.81766e-13, global = -2.66548e-13, cumulative = -7.52434e-10
DICPCG:  Solving for p, Initial residual = 6.00551e-08, Final residual = 6.00551e-08, No Iterations 0
time step continuity errors : sum local = 8.85727e-13, global = -2.65795e-13, cumulative = -7.527e-10
ExecutionTime = 133.24 s  ClockTime = 136 s

Time = 49.75

Courant Number mean: 0.133773 max: 0.196868
smoothSolver:  Solving for Ux, Initial residual = 2.62881e-10, Final residual = 2.62881e-10, No Iterations 0
smoothSolver:  Solving for Uy, Initial residual = 6.4951e-10, Final residual = 6.4951e-10, No Iterations 0
DICPCG:  Solving for p, Initial residual = 8.49922e-08, Final residual = 8.49922e-08, No Iterations 0
time step continuity errors : sum local = 1.25351e-12, global = -2.69997e-13, cumulative = -7.5297e-10
DICPCG:  Solving for p, Initial residual = 8.56215e-08, Final residual = 8.56215e-08, No Iterations 0
time step continuity errors : sum local = 1.2628e-12, global = -2.69308e-13, cumulative = -7.53239e-10
ExecutionTime = 133.26 s  ClockTime = 136 s

Time = 49.76

Courant Number mean: 0.133773 max: 0.196868
smoothSolver:  Solving for Ux, Initial residual = 2.61264e-10, Final residual = 2.61264e-10, No Iterations 0
smoothSolver:  Solving for Uy, Initial residual = 6.45572e-10, Final residual = 6.45572e-10, No Iterations 0
DICPCG:  Solving for p, Initial residual = 1.06528e-07, Final residual = 5.89879e-08, No Iterations 1
time step continuity errors : sum local = 8.69988e-13, global = -2.73279e-13, cumulative = -7.53512e-10
DICPCG:  Solving for p, Initial residual = 5.91463e-08, Final residual = 5.91463e-08, No Iterations 0
time step continuity errors : sum local = 8.72323e-13, global = -2.72542e-13, cumulative = -7.53785e-10
ExecutionTime = 133.27 s  ClockTime = 136 s

Time = 49.77

Courant Number mean: 0.133773 max: 0.196868
smoothSolver:  Solving for Ux, Initial residual = 2.59863e-10, Final residual = 2.59863e-10, No Iterations 0
smoothSolver:  Solving for Uy, Initial residual = 6.4125e-10, Final residual = 6.4125e-10, No Iterations 0
DICPCG:  Solving for p, Initial residual = 7.73443e-08, Final residual = 7.73443e-08, No Iterations 0
time step continuity errors : sum local = 1.14072e-12, global = -2.76783e-13, cumulative = -7.54062e-10
DICPCG:  Solving for p, Initial residual = 7.79235e-08, Final residual = 7.79235e-08, No Iterations 0
time step continuity errors : sum local = 1.14926e-12, global = -2.76109e-13, cumulative = -7.54338e-10
ExecutionTime = 133.27 s  ClockTime = 136 s

Time = 49.78

Courant Number mean: 0.133773 max: 0.196868
smoothSolver:  Solving for Ux, Initial residual = 2.58393e-10, Final residual = 2.58393e-10, No Iterations 0
smoothSolver:  Solving for Uy, Initial residual = 6.37752e-10, Final residual = 6.37752e-10, No Iterations 0
DICPCG:  Solving for p, Initial residual = 9.35547e-08, Final residual = 9.35547e-08, No Iterations 0
time step continuity errors : sum local = 1.3798e-12, global = -2.80645e-13, cumulative = -7.54619e-10
DICPCG:  Solving for p, Initial residual = 9.41954e-08, Final residual = 9.41954e-08, No Iterations 0
time step continuity errors : sum local = 1.38925e-12, global = -2.80031e-13, cumulative = -7.54899e-10
ExecutionTime = 133.28 s  ClockTime = 136 s

Time = 49.79

Courant Number mean: 0.133773 max: 0.196868
smoothSolver:  Solving for Ux, Initial residual = 2.57001e-10, Final residual = 2.57001e-10, No Iterations 0
smoothSolver:  Solving for Uy, Initial residual = 6.34454e-10, Final residual = 6.34454e-10, No Iterations 0
DICPCG:  Solving for p, Initial residual = 1.07052e-07, Final residual = 5.79476e-08, No Iterations 1
time step continuity errors : sum local = 8.54645e-13, global = -2.84505e-13, cumulative = -7.55183e-10
DICPCG:  Solving for p, Initial residual = 5.82845e-08, Final residual = 5.82845e-08, No Iterations 0
time step continuity errors : sum local = 8.59614e-13, global = -2.83864e-13, cumulative = -7.55467e-10
ExecutionTime = 133.29 s  ClockTime = 136 s

Time = 49.8

Courant Number mean: 0.133773 max: 0.196868
smoothSolver:  Solving for Ux, Initial residual = 2.57967e-10, Final residual = 2.57967e-10, No Iterations 0
smoothSolver:  Solving for Uy, Initial residual = 6.3949e-10, Final residual = 6.3949e-10, No Iterations 0
DICPCG:  Solving for p, Initial residual = 8.46408e-08, Final residual = 8.46408e-08, No Iterations 0
time step continuity errors : sum local = 1.24833e-12, global = -2.88582e-13, cumulative = -7.55755e-10
DICPCG:  Solving for p, Initial residual = 8.53508e-08, Final residual = 8.53508e-08, No Iterations 0
time step continuity errors : sum local = 1.2588e-12, global = -2.88002e-13, cumulative = -7.56043e-10
ExecutionTime = 133.3 s  ClockTime = 136 s

Time = 49.81

Courant Number mean: 0.133773 max: 0.196868
smoothSolver:  Solving for Ux, Initial residual = 2.56323e-10, Final residual = 2.56323e-10, No Iterations 0
smoothSolver:  Solving for Uy, Initial residual = 6.35514e-10, Final residual = 6.35514e-10, No Iterations 0
DICPCG:  Solving for p, Initial residual = 1.07996e-07, Final residual = 5.76759e-08, No Iterations 1
time step continuity errors : sum local = 8.50636e-13, global = -2.92713e-13, cumulative = -7.56336e-10
DICPCG:  Solving for p, Initial residual = 5.78031e-08, Final residual = 5.78031e-08, No Iterations 0
time step continuity errors : sum local = 8.52513e-13, global = -2.9212e-13, cumulative = -7.56628e-10
ExecutionTime = 133.31 s  ClockTime = 136 s

Time = 49.82

Courant Number mean: 0.133773 max: 0.196868
smoothSolver:  Solving for Ux, Initial residual = 2.54948e-10, Final residual = 2.54948e-10, No Iterations 0
smoothSolver:  Solving for Uy, Initial residual = 6.32823e-10, Final residual = 6.32823e-10, No Iterations 0
DICPCG:  Solving for p, Initial residual = 7.69376e-08, Final residual = 7.69376e-08, No Iterations 0
time step continuity errors : sum local = 1.13472e-12, global = -2.97076e-13, cumulative = -7.56925e-10
DICPCG:  Solving for p, Initial residual = 7.75452e-08, Final residual = 7.75452e-08, No Iterations 0
time step continuity errors : sum local = 1.14368e-12, global = -2.96544e-13, cumulative = -7.57222e-10
ExecutionTime = 133.32 s  ClockTime = 136 s

Time = 49.83

Courant Number mean: 0.133773 max: 0.196868
smoothSolver:  Solving for Ux, Initial residual = 2.5347e-10, Final residual = 2.5347e-10, No Iterations 0
smoothSolver:  Solving for Uy, Initial residual = 6.29289e-10, Final residual = 6.29289e-10, No Iterations 0
DICPCG:  Solving for p, Initial residual = 9.44846e-08, Final residual = 9.44846e-08, No Iterations 0
time step continuity errors : sum local = 1.39351e-12, global = -3.01785e-13, cumulative = -7.57524e-10
DICPCG:  Solving for p, Initial residual = 9.51934e-08, Final residual = 9.51934e-08, No Iterations 0
time step continuity errors : sum local = 1.40397e-12, global = -3.01313e-13, cumulative = -7.57825e-10
ExecutionTime = 133.33 s  ClockTime = 136 s

Time = 49.84

Courant Number mean: 0.133773 max: 0.196868
smoothSolver:  Solving for Ux, Initial residual = 2.52076e-10, Final residual = 2.52076e-10, No Iterations 0
smoothSolver:  Solving for Uy, Initial residual = 6.25988e-10, Final residual = 6.25988e-10, No Iterations 0
DICPCG:  Solving for p, Initial residual = 1.09391e-07, Final residual = 5.77875e-08, No Iterations 1
time step continuity errors : sum local = 8.52282e-13, global = -3.06707e-13, cumulative = -7.58132e-10
DICPCG:  Solving for p, Initial residual = 5.81997e-08, Final residual = 5.81997e-08, No Iterations 0
time step continuity errors : sum local = 8.58363e-13, global = -3.06247e-13, cumulative = -7.58438e-10
ExecutionTime = 133.35 s  ClockTime = 136 s

Time = 49.85

Courant Number mean: 0.133773 max: 0.196868
smoothSolver:  Solving for Ux, Initial residual = 2.53246e-10, Final residual = 2.53246e-10, No Iterations 0
smoothSolver:  Solving for Uy, Initial residual = 6.32895e-10, Final residual = 6.32895e-10, No Iterations 0
DICPCG:  Solving for p, Initial residual = 8.66683e-08, Final residual = 8.66683e-08, No Iterations 0
time step continuity errors : sum local = 1.27823e-12, global = -3.11879e-13, cumulative = -7.5875e-10
DICPCG:  Solving for p, Initial residual = 8.75522e-08, Final residual = 8.75522e-08, No Iterations 0
time step continuity errors : sum local = 1.29127e-12, global = -3.1148e-13, cumulative = -7.59061e-10
ExecutionTime = 133.36 s  ClockTime = 136 s

Time = 49.86

Courant Number mean: 0.133773 max: 0.196868
smoothSolver:  Solving for Ux, Initial residual = 2.51586e-10, Final residual = 2.51586e-10, No Iterations 0
smoothSolver:  Solving for Uy, Initial residual = 6.28898e-10, Final residual = 6.28898e-10, No Iterations 0
DICPCG:  Solving for p, Initial residual = 1.12544e-07, Final residual = 5.91954e-08, No Iterations 1
time step continuity errors : sum local = 8.73047e-13, global = -3.17318e-13, cumulative = -7.59379e-10
DICPCG:  Solving for p, Initial residual = 5.94427e-08, Final residual = 5.94427e-08, No Iterations 0
time step continuity errors : sum local = 8.76694e-13, global = -3.16941e-13, cumulative = -7.59696e-10
ExecutionTime = 133.37 s  ClockTime = 136 s

Time = 49.87

Courant Number mean: 0.133773 max: 0.196868
smoothSolver:  Solving for Ux, Initial residual = 2.50304e-10, Final residual = 2.50304e-10, No Iterations 0
smoothSolver:  Solving for Uy, Initial residual = 6.27612e-10, Final residual = 6.27612e-10, No Iterations 0
DICPCG:  Solving for p, Initial residual = 8.05738e-08, Final residual = 8.05738e-08, No Iterations 0
time step continuity errors : sum local = 1.18835e-12, global = -3.23018e-13, cumulative = -7.60019e-10
DICPCG:  Solving for p, Initial residual = 8.1377e-08, Final residual = 8.1377e-08, No Iterations 0
time step continuity errors : sum local = 1.20019e-12, global = -3.22701e-13, cumulative = -7.60341e-10
ExecutionTime = 133.37 s  ClockTime = 136 s

Time = 49.88

Courant Number mean: 0.133773 max: 0.196868
smoothSolver:  Solving for Ux, Initial residual = 2.48817e-10, Final residual = 2.48817e-10, No Iterations 0
smoothSolver:  Solving for Uy, Initial residual = 6.24036e-10, Final residual = 6.24036e-10, No Iterations 0
DICPCG:  Solving for p, Initial residual = 1.00478e-07, Final residual = 6.01217e-08, No Iterations 1
time step continuity errors : sum local = 8.86709e-13, global = -3.29002e-13, cumulative = -7.6067e-10
DICPCG:  Solving for p, Initial residual = 6.08311e-08, Final residual = 6.08311e-08, No Iterations 0
time step continuity errors : sum local = 8.97172e-13, global = -3.28715e-13, cumulative = -7.60999e-10
ExecutionTime = 133.38 s  ClockTime = 136 s

Time = 49.89

Courant Number mean: 0.133773 max: 0.196868
smoothSolver:  Solving for Ux, Initial residual = 2.47637e-10, Final residual = 2.47637e-10, No Iterations 0
smoothSolver:  Solving for Uy, Initial residual = 6.2483e-10, Final residual = 6.2483e-10, No Iterations 0
DICPCG:  Solving for p, Initial residual = 7.81571e-08, Final residual = 7.81571e-08, No Iterations 0
time step continuity errors : sum local = 1.15271e-12, global = -3.35257e-13, cumulative = -7.61334e-10
DICPCG:  Solving for p, Initial residual = 7.89935e-08, Final residual = 7.89935e-08, No Iterations 0
time step continuity errors : sum local = 1.16504e-12, global = -3.35029e-13, cumulative = -7.61669e-10
ExecutionTime = 133.39 s  ClockTime = 136 s

Time = 49.9

Courant Number mean: 0.133773 max: 0.196868
smoothSolver:  Solving for Ux, Initial residual = 2.46285e-10, Final residual = 2.46285e-10, No Iterations 0
smoothSolver:  Solving for Uy, Initial residual = 6.21519e-10, Final residual = 6.21519e-10, No Iterations 0
DICPCG:  Solving for p, Initial residual = 9.43452e-08, Final residual = 9.43452e-08, No Iterations 0
time step continuity errors : sum local = 1.39146e-12, global = -3.41848e-13, cumulative = -7.62011e-10
DICPCG:  Solving for p, Initial residual = 9.52714e-08, Final residual = 9.52714e-08, No Iterations 0
time step continuity errors : sum local = 1.40512e-12, global = -3.41678e-13, cumulative = -7.62353e-10
ExecutionTime = 133.41 s  ClockTime = 136 s

Time = 49.91

Courant Number mean: 0.133773 max: 0.196868
smoothSolver:  Solving for Ux, Initial residual = 2.45013e-10, Final residual = 2.45013e-10, No Iterations 0
smoothSolver:  Solving for Uy, Initial residual = 6.18404e-10, Final residual = 6.18404e-10, No Iterations 0
DICPCG:  Solving for p, Initial residual = 1.08194e-07, Final residual = 6.45975e-08, No Iterations 1
time step continuity errors : sum local = 9.5272e-13, global = -3.48824e-13, cumulative = -7.62702e-10
DICPCG:  Solving for p, Initial residual = 6.50975e-08, Final residual = 6.50975e-08, No Iterations 0
time step continuity errors : sum local = 9.60095e-13, global = -3.48697e-13, cumulative = -7.6305e-10
ExecutionTime = 133.42 s  ClockTime = 136 s

Time = 49.92

Courant Number mean: 0.133773 max: 0.196868
smoothSolver:  Solving for Ux, Initial residual = 2.46148e-10, Final residual = 2.46148e-10, No Iterations 0
smoothSolver:  Solving for Uy, Initial residual = 6.25835e-10, Final residual = 6.25835e-10, No Iterations 0
DICPCG:  Solving for p, Initial residual = 8.99494e-08, Final residual = 8.99494e-08, No Iterations 0
time step continuity errors : sum local = 1.32662e-12, global = -3.56069e-13, cumulative = -7.63406e-10
DICPCG:  Solving for p, Initial residual = 9.08785e-08, Final residual = 9.08785e-08, No Iterations 0
time step continuity errors : sum local = 1.34033e-12, global = -3.56e-13, cumulative = -7.63762e-10
ExecutionTime = 133.43 s  ClockTime = 136 s

Time = 49.93

Courant Number mean: 0.133773 max: 0.196868
smoothSolver:  Solving for Ux, Initial residual = 2.44633e-10, Final residual = 2.44633e-10, No Iterations 0
smoothSolver:  Solving for Uy, Initial residual = 6.2214e-10, Final residual = 6.2214e-10, No Iterations 0
DICPCG:  Solving for p, Initial residual = 1.12821e-07, Final residual = 6.71881e-08, No Iterations 1
time step continuity errors : sum local = 9.90928e-13, global = -3.63697e-13, cumulative = -7.64126e-10
DICPCG:  Solving for p, Initial residual = 6.77411e-08, Final residual = 6.77411e-08, No Iterations 0
time step continuity errors : sum local = 9.99084e-13, global = -3.63673e-13, cumulative = -7.6449e-10
ExecutionTime = 133.44 s  ClockTime = 136 s

Time = 49.94

Courant Number mean: 0.133773 max: 0.196868
smoothSolver:  Solving for Ux, Initial residual = 2.4348e-10, Final residual = 2.4348e-10, No Iterations 0
smoothSolver:  Solving for Uy, Initial residual = 6.23509e-10, Final residual = 6.23509e-10, No Iterations 0
DICPCG:  Solving for p, Initial residual = 8.79731e-08, Final residual = 8.79731e-08, No Iterations 0
time step continuity errors : sum local = 1.29748e-12, global = -3.71597e-13, cumulative = -7.64861e-10
DICPCG:  Solving for p, Initial residual = 8.88654e-08, Final residual = 8.88654e-08, No Iterations 0
time step continuity errors : sum local = 1.31064e-12, global = -3.71631e-13, cumulative = -7.65233e-10
ExecutionTime = 133.45 s  ClockTime = 136 s

Time = 49.95

Courant Number mean: 0.133773 max: 0.196868
smoothSolver:  Solving for Ux, Initial residual = 2.42112e-10, Final residual = 2.42112e-10, No Iterations 0
smoothSolver:  Solving for Uy, Initial residual = 6.20099e-10, Final residual = 6.20099e-10, No Iterations 0
DICPCG:  Solving for p, Initial residual = 1.06415e-07, Final residual = 6.9337e-08, No Iterations 1
time step continuity errors : sum local = 1.02262e-12, global = -3.79849e-13, cumulative = -7.65613e-10
DICPCG:  Solving for p, Initial residual = 6.9936e-08, Final residual = 6.9936e-08, No Iterations 0
time step continuity errors : sum local = 1.03146e-12, global = -3.79927e-13, cumulative = -7.65993e-10
ExecutionTime = 133.46 s  ClockTime = 136 s

Time = 49.96

Courant Number mean: 0.133773 max: 0.196868
smoothSolver:  Solving for Ux, Initial residual = 2.41318e-10, Final residual = 2.41318e-10, No Iterations 0
smoothSolver:  Solving for Uy, Initial residual = 6.22872e-10, Final residual = 6.22872e-10, No Iterations 0
DICPCG:  Solving for p, Initial residual = 8.66509e-08, Final residual = 8.66509e-08, No Iterations 0
time step continuity errors : sum local = 1.27798e-12, global = -3.88378e-13, cumulative = -7.66381e-10
DICPCG:  Solving for p, Initial residual = 8.74555e-08, Final residual = 8.74555e-08, No Iterations 0
time step continuity errors : sum local = 1.28984e-12, global = -3.88513e-13, cumulative = -7.6677e-10
ExecutionTime = 133.46 s  ClockTime = 136 s

Time = 49.97

Courant Number mean: 0.133773 max: 0.196868
smoothSolver:  Solving for Ux, Initial residual = 2.40059e-10, Final residual = 2.40059e-10, No Iterations 0
smoothSolver:  Solving for Uy, Initial residual = 6.19668e-10, Final residual = 6.19668e-10, No Iterations 0
DICPCG:  Solving for p, Initial residual = 1.01957e-07, Final residual = 7.15569e-08, No Iterations 1
time step continuity errors : sum local = 1.05536e-12, global = -3.9723e-13, cumulative = -7.67167e-10
DICPCG:  Solving for p, Initial residual = 7.21956e-08, Final residual = 7.21956e-08, No Iterations 0
time step continuity errors : sum local = 1.06478e-12, global = -3.97406e-13, cumulative = -7.67564e-10
ExecutionTime = 133.47 s  ClockTime = 136 s

Time = 49.98

Courant Number mean: 0.133773 max: 0.196868
smoothSolver:  Solving for Ux, Initial residual = 2.39381e-10, Final residual = 2.39381e-10, No Iterations 0
smoothSolver:  Solving for Uy, Initial residual = 6.23692e-10, Final residual = 6.23692e-10, No Iterations 0
DICPCG:  Solving for p, Initial residual = 8.76057e-08, Final residual = 8.76057e-08, No Iterations 0
time step continuity errors : sum local = 1.29206e-12, global = -4.06356e-13, cumulative = -7.67971e-10
DICPCG:  Solving for p, Initial residual = 8.8397e-08, Final residual = 8.8397e-08, No Iterations 0
time step continuity errors : sum local = 1.30373e-12, global = -4.06588e-13, cumulative = -7.68377e-10
ExecutionTime = 133.49 s  ClockTime = 136 s

Time = 49.99

Courant Number mean: 0.133773 max: 0.196868
smoothSolver:  Solving for Ux, Initial residual = 2.38183e-10, Final residual = 2.38183e-10, No Iterations 0
smoothSolver:  Solving for Uy, Initial residual = 6.20576e-10, Final residual = 6.20576e-10, No Iterations 0
DICPCG:  Solving for p, Initial residual = 1.0128e-07, Final residual = 7.37153e-08, No Iterations 1
time step continuity errors : sum local = 1.08719e-12, global = -4.15773e-13, cumulative = -7.68793e-10
DICPCG:  Solving for p, Initial residual = 7.4302e-08, Final residual = 7.4302e-08, No Iterations 0
time step continuity errors : sum local = 1.09585e-12, global = -4.16042e-13, cumulative = -7.69209e-10
ExecutionTime = 133.5 s  ClockTime = 136 s

Time = 50

Courant Number mean: 0.133773 max: 0.196868
smoothSolver:  Solving for Ux, Initial residual = 2.37775e-10, Final residual = 2.37775e-10, No Iterations 0
smoothSolver:  Solving for Uy, Initial residual = 6.25067e-10, Final residual = 6.25067e-10, No Iterations 0
DICPCG:  Solving for p, Initial residual = 8.86861e-08, Final residual = 8.86861e-08, No Iterations 0
time step continuity errors : sum local = 1.30799e-12, global = -4.25458e-13, cumulative = -7.69635e-10
DICPCG:  Solving for p, Initial residual = 8.94026e-08, Final residual = 8.94026e-08, No Iterations 0
time step continuity errors : sum local = 1.31856e-12, global = -4.25782e-13, cumulative = -7.7006e-10
ExecutionTime = 133.56 s  ClockTime = 136 s

End

Finalising parallel run
